<?xml version="1.0" encoding="UTF-8"?>

<!-- generated on 2022-04-19 09:46:39 by Eclipse SUMO netedit Version 1.12.0
<configuration xmlns:xsi="http://www.w3.org/2001/XMLSchema-instance" xsi:noNamespaceSchemaLocation="http://sumo.dlr.de/xsd/netconvertConfiguration.xsd">

    <input>
        <sumo-net-file value="/Users/leegie/programming/github/tutorials/simulations/hh/vd012.net.xml"/>
    </input>

    <output>
        <output-file value="/Users/leegie/programming/github/tutorials/simulations/hh/vd012.net.xml"/>
    </output>

    <processing>
        <geometry.min-radius.fix.railways value="false"/>
        <geometry.max-grade.fix value="false"/>
        <offset.disable-normalization value="true"/>
        <lefthand value="false"/>
    </processing>

    <junctions>
        <no-internal-links value="false"/>
        <no-turnarounds value="true"/>
        <junctions.corner-detail value="5"/>
        <junctions.limit-turn-speed value="5.5"/>
        <rectangular-lane-cut value="false"/>
    </junctions>

    <pedestrian>
        <walkingareas value="false"/>
    </pedestrian>

    <report>
        <aggregate-warnings value="5"/>
    </report>

</configuration>
-->

<net version="1.9" junctionCornerDetail="5" limitTurnSpeed="5.50" xmlns:xsi="http://www.w3.org/2001/XMLSchema-instance" xsi:noNamespaceSchemaLocation="http://sumo.dlr.de/xsd/net_file.xsd">

    <location netOffset="0.00,0.00" convBoundary="-12.50,-150.00,600.00,150.00" origBoundary="-10000000000.00,-10000000000.00,10000000000.00,10000000000.00" projParameter="!"/>

    <edge id=":J0_0" function="internal">
        <lane id=":J0_0_0" index="0" disallow="pedestrian" speed="13.89" length="4.00" shape="10.90,102.00 10.90,98.00"/>
    </edge>
    <edge id=":J0_1" function="internal">
        <lane id=":J0_1_0" index="0" disallow="pedestrian" speed="13.89" length="4.00" shape="14.10,98.00 14.10,102.00"/>
    </edge>
    <edge id=":J0_c0" function="crossing" crossingEdges="E24 -E24">
        <lane id=":J0_c0_0" index="0" allow="pedestrian" speed="1.00" length="6.40" width="4.00" shape="15.70,100.00 9.30,100.00"/>
    </edge>
    <edge id=":J0_w0" function="walkingarea">
        <lane id=":J0_w0_0" index="0" allow="pedestrian" speed="1.00" length="2.82" width="4.00" shape="9.30,98.00 7.30,98.00 7.30,102.00 9.30,102.00 9.30,98.00"/>
    </edge>
    <edge id=":J0_w1" function="walkingarea">
        <lane id=":J0_w1_0" index="0" allow="pedestrian" speed="1.00" length="2.82" width="4.00" shape="15.70,98.00 15.70,102.00 17.70,102.00 17.70,98.00 15.70,98.00"/>
    </edge>
    <edge id=":J1_0" function="internal">
        <lane id=":J1_0_0" index="0" disallow="pedestrian" speed="13.89" length="4.00" shape="10.90,114.50 10.90,110.50"/>
    </edge>
    <edge id=":J1_1" function="internal">
        <lane id=":J1_1_0" index="0" disallow="pedestrian" speed="13.89" length="4.00" shape="14.10,110.50 14.10,114.50"/>
    </edge>
    <edge id=":J1_c0" function="crossing" crossingEdges="E25 -E25">
        <lane id=":J1_c0_0" index="0" allow="pedestrian" speed="1.00" length="6.40" width="4.00" shape="15.70,112.50 9.30,112.50"/>
    </edge>
    <edge id=":J1_w0" function="walkingarea">
        <lane id=":J1_w0_0" index="0" allow="pedestrian" speed="1.00" length="2.82" width="4.00" shape="9.30,110.50 7.30,110.50 7.30,114.50 9.30,114.50 9.30,110.50"/>
    </edge>
    <edge id=":J1_w1" function="walkingarea">
        <lane id=":J1_w1_0" index="0" allow="pedestrian" speed="1.00" length="2.82" width="4.00" shape="15.70,110.50 15.70,114.50 17.70,114.50 17.70,110.50 15.70,110.50"/>
    </edge>
    <edge id=":J10_0" function="internal">
        <lane id=":J10_0_0" index="0" disallow="pedestrian" speed="13.89" length="14.40" shape="10.90,94.70 10.90,80.30"/>
    </edge>
    <edge id=":J10_1" function="internal">
        <lane id=":J10_1_0" index="0" disallow="pedestrian" speed="8.00" length="4.07" shape="10.90,94.70 11.45,90.85 11.54,90.70"/>
    </edge>
    <edge id=":J10_6" function="internal">
        <lane id=":J10_6_0" index="0" disallow="pedestrian" speed="8.00" length="10.13" shape="11.54,90.70 13.10,88.10 15.85,86.45 19.70,85.90"/>
    </edge>
    <edge id=":J10_2" function="internal">
        <lane id=":J10_2_0" index="0" disallow="pedestrian" speed="6.51" length="9.03" shape="19.70,89.10 17.25,89.45 15.50,90.50 14.45,92.25 14.10,94.70"/>
    </edge>
    <edge id=":J10_3" function="internal">
        <lane id=":J10_3_0" index="0" disallow="pedestrian" speed="8.00" length="14.19" shape="19.70,89.10 15.85,88.55 13.10,86.90 11.45,84.15 10.90,80.30"/>
    </edge>
    <edge id=":J10_4" function="internal">
        <lane id=":J10_4_0" index="0" disallow="pedestrian" speed="6.51" length="4.75" shape="14.10,80.30 14.45,82.75 15.50,84.50 15.70,84.62"/>
    </edge>
    <edge id=":J10_5" function="internal">
        <lane id=":J10_5_0" index="0" disallow="pedestrian" speed="13.89" length="14.40" shape="14.10,80.30 14.10,94.70"/>
    </edge>
    <edge id=":J10_7" function="internal">
        <lane id=":J10_7_0" index="0" disallow="pedestrian" speed="6.51" length="4.28" shape="15.70,84.62 17.25,85.55 19.70,85.90"/>
    </edge>
    <edge id=":J10_c0" function="crossing" crossingEdges="E23 -E23">
        <lane id=":J10_c0_0" index="0" allow="pedestrian" speed="1.00" length="6.40" width="4.00" shape="15.70,92.70 9.30,92.70"/>
    </edge>
    <edge id=":J10_c1" function="crossing" crossingEdges="E8 -E8">
        <lane id=":J10_c1_0" index="0" allow="pedestrian" speed="1.00" length="6.40" width="4.00" shape="17.70,84.30 17.70,90.70"/>
    </edge>
    <edge id=":J10_c2" function="crossing" crossingEdges="-E7 E7">
        <lane id=":J10_c2_0" index="0" allow="pedestrian" speed="1.00" length="6.40" width="4.00" shape="9.30,82.30 15.70,82.30"/>
    </edge>
    <edge id=":J10_w0" function="walkingarea">
        <lane id=":J10_w0_0" index="0" allow="pedestrian" speed="1.00" length="9.03" width="4.00" shape="9.30,84.30 9.30,80.30 7.30,80.30 7.30,94.70 9.30,94.70 9.30,90.70"/>
    </edge>
    <edge id=":J10_w1" function="walkingarea">
        <lane id=":J10_w1_0" index="0" allow="pedestrian" speed="1.00" length="3.30" width="4.00" shape="15.70,94.70 17.70,94.70 19.70,92.70 19.70,90.70 18.48,90.81 17.48,91.14 16.70,91.70 16.14,92.48 15.81,93.48"/>
    </edge>
    <edge id=":J10_w2" function="walkingarea">
        <lane id=":J10_w2_0" index="0" allow="pedestrian" speed="1.00" length="3.30" width="4.00" shape="19.70,84.30 19.70,82.30 17.70,80.30 15.70,80.30 15.81,81.52 16.14,82.52 16.70,83.30 17.48,83.86 18.48,84.19"/>
    </edge>
    <edge id=":J100_0" function="internal">
        <lane id=":J100_0_0" index="0" disallow="pedestrian" speed="13.89" length="4.00" shape="264.50,64.10 260.50,64.10"/>
    </edge>
    <edge id=":J100_1" function="internal">
        <lane id=":J100_1_0" index="0" disallow="pedestrian" speed="13.89" length="4.00" shape="260.50,60.90 264.50,60.90"/>
    </edge>
    <edge id=":J100_c0" function="crossing" crossingEdges="-E99 E99">
        <lane id=":J100_c0_0" index="0" allow="pedestrian" speed="1.00" length="6.40" width="4.00" shape="262.50,65.70 262.50,59.30"/>
    </edge>
    <edge id=":J100_w0" function="walkingarea">
        <lane id=":J100_w0_0" index="0" allow="pedestrian" speed="1.00" length="2.82" width="4.00" shape="264.50,65.70 260.50,65.70 260.50,67.70 264.50,67.70 264.50,65.70"/>
    </edge>
    <edge id=":J100_w1" function="walkingarea">
        <lane id=":J100_w1_0" index="0" allow="pedestrian" speed="1.00" length="2.82" width="4.00" shape="264.50,59.30 264.50,57.30 260.50,57.30 260.50,59.30 264.50,59.30"/>
    </edge>
    <edge id=":J101_0" function="internal">
        <lane id=":J101_0_0" index="0" disallow="pedestrian" speed="6.51" length="4.75" shape="273.40,69.70 273.05,67.25 272.00,65.50 271.80,65.38"/>
    </edge>
    <edge id=":J101_1" function="internal">
        <lane id=":J101_1_0" index="0" disallow="pedestrian" speed="13.89" length="14.40" shape="273.40,69.70 273.40,55.30"/>
    </edge>
    <edge id=":J101_2" function="internal">
        <lane id=":J101_2_0" index="0" disallow="pedestrian" speed="8.00" length="4.07" shape="273.40,69.70 273.95,65.85 274.04,65.70"/>
    </edge>
    <edge id=":J101_12" function="internal">
        <lane id=":J101_12_0" index="0" disallow="pedestrian" speed="6.51" length="4.28" shape="271.80,65.38 270.25,64.45 267.80,64.10"/>
    </edge>
    <edge id=":J101_13" function="internal">
        <lane id=":J101_13_0" index="0" disallow="pedestrian" speed="8.00" length="10.13" shape="274.04,65.70 275.60,63.10 278.35,61.45 282.20,60.90"/>
    </edge>
    <edge id=":J101_3" function="internal">
        <lane id=":J101_3_0" index="0" disallow="pedestrian" speed="6.51" length="9.03" shape="282.20,64.10 279.75,64.45 278.00,65.50 276.95,67.25 276.60,69.70"/>
    </edge>
    <edge id=":J101_4" function="internal">
        <lane id=":J101_4_0" index="0" disallow="pedestrian" speed="13.89" length="14.40" shape="282.20,64.10 267.80,64.10"/>
    </edge>
    <edge id=":J101_5" function="internal">
        <lane id=":J101_5_0" index="0" disallow="pedestrian" speed="8.00" length="14.19" shape="282.20,64.10 278.35,63.55 275.60,61.90 273.95,59.15 273.40,55.30"/>
    </edge>
    <edge id=":J101_6" function="internal">
        <lane id=":J101_6_0" index="0" disallow="pedestrian" speed="6.51" length="4.75" shape="276.60,55.30 276.95,57.75 278.00,59.50 278.20,59.62"/>
    </edge>
    <edge id=":J101_7" function="internal">
        <lane id=":J101_7_0" index="0" disallow="pedestrian" speed="13.89" length="14.40" shape="276.60,55.30 276.60,69.70"/>
    </edge>
    <edge id=":J101_8" function="internal">
        <lane id=":J101_8_0" index="0" disallow="pedestrian" speed="8.00" length="4.07" shape="276.60,55.30 276.05,59.15 275.96,59.30"/>
    </edge>
    <edge id=":J101_14" function="internal">
        <lane id=":J101_14_0" index="0" disallow="pedestrian" speed="6.51" length="4.28" shape="278.20,59.62 279.75,60.55 282.20,60.90"/>
    </edge>
    <edge id=":J101_15" function="internal">
        <lane id=":J101_15_0" index="0" disallow="pedestrian" speed="8.00" length="10.13" shape="275.96,59.30 274.40,61.90 271.65,63.55 267.80,64.10"/>
    </edge>
    <edge id=":J101_9" function="internal">
        <lane id=":J101_9_0" index="0" disallow="pedestrian" speed="6.51" length="9.03" shape="267.80,60.90 270.25,60.55 272.00,59.50 273.05,57.75 273.40,55.30"/>
    </edge>
    <edge id=":J101_10" function="internal">
        <lane id=":J101_10_0" index="0" disallow="pedestrian" speed="13.89" length="14.40" shape="267.80,60.90 282.20,60.90"/>
    </edge>
    <edge id=":J101_11" function="internal">
        <lane id=":J101_11_0" index="0" disallow="pedestrian" speed="8.00" length="14.19" shape="267.80,60.90 271.65,61.45 274.40,63.10 276.05,65.85 276.60,69.70"/>
    </edge>
    <edge id=":J101_c0" function="crossing" crossingEdges="E195 -E195">
        <lane id=":J101_c0_0" index="0" allow="pedestrian" speed="1.00" length="6.40" width="4.00" shape="278.20,67.70 271.80,67.70"/>
    </edge>
    <edge id=":J101_c1" function="crossing" crossingEdges="E101 -E101">
        <lane id=":J101_c1_0" index="0" allow="pedestrian" speed="1.00" length="6.40" width="4.00" shape="280.20,59.30 280.20,65.70"/>
    </edge>
    <edge id=":J101_c2" function="crossing" crossingEdges="E436 -E436">
        <lane id=":J101_c2_0" index="0" allow="pedestrian" speed="1.00" length="6.40" width="4.00" shape="271.80,57.30 278.20,57.30"/>
    </edge>
    <edge id=":J101_c3" function="crossing" crossingEdges="-E100 E100">
        <lane id=":J101_c3_0" index="0" allow="pedestrian" speed="1.00" length="6.40" width="4.00" shape="269.80,65.70 269.80,59.30"/>
    </edge>
    <edge id=":J101_w0" function="walkingarea">
        <lane id=":J101_w0_0" index="0" allow="pedestrian" speed="1.00" length="3.30" width="4.00" shape="267.80,65.70 267.80,67.70 269.80,69.70 271.80,69.70 271.69,68.48 271.36,67.48 270.80,66.70 270.02,66.14 269.02,65.81"/>
    </edge>
    <edge id=":J101_w1" function="walkingarea">
        <lane id=":J101_w1_0" index="0" allow="pedestrian" speed="1.00" length="3.30" width="4.00" shape="278.20,69.70 280.20,69.70 282.20,67.70 282.20,65.70 280.98,65.81 279.98,66.14 279.20,66.70 278.64,67.48 278.31,68.48"/>
    </edge>
    <edge id=":J101_w2" function="walkingarea">
        <lane id=":J101_w2_0" index="0" allow="pedestrian" speed="1.00" length="3.30" width="4.00" shape="282.20,59.30 282.20,57.30 280.20,55.30 278.20,55.30 278.31,56.52 278.64,57.52 279.20,58.30 279.98,58.86 280.98,59.19"/>
    </edge>
    <edge id=":J101_w3" function="walkingarea">
        <lane id=":J101_w3_0" index="0" allow="pedestrian" speed="1.00" length="3.30" width="4.00" shape="271.80,55.30 269.80,55.30 267.80,57.30 267.80,59.30 269.02,59.19 270.02,58.86 270.80,58.30 271.36,57.52 271.69,56.52"/>
    </edge>
    <edge id=":J102_0" function="internal">
        <lane id=":J102_0_0" index="0" disallow="pedestrian" speed="13.89" length="4.00" shape="289.50,64.10 285.50,64.10"/>
    </edge>
    <edge id=":J102_1" function="internal">
        <lane id=":J102_1_0" index="0" disallow="pedestrian" speed="13.89" length="4.00" shape="285.50,60.90 289.50,60.90"/>
    </edge>
    <edge id=":J102_c0" function="crossing" crossingEdges="-E101 E101">
        <lane id=":J102_c0_0" index="0" allow="pedestrian" speed="1.00" length="6.40" width="4.00" shape="287.50,65.70 287.50,59.30"/>
    </edge>
    <edge id=":J102_w0" function="walkingarea">
        <lane id=":J102_w0_0" index="0" allow="pedestrian" speed="1.00" length="2.82" width="4.00" shape="289.50,65.70 285.50,65.70 285.50,67.70 289.50,67.70 289.50,65.70"/>
    </edge>
    <edge id=":J102_w1" function="walkingarea">
        <lane id=":J102_w1_0" index="0" allow="pedestrian" speed="1.00" length="2.82" width="4.00" shape="289.50,59.30 289.50,57.30 285.50,57.30 285.50,59.30 289.50,59.30"/>
    </edge>
    <edge id=":J103_0" function="internal">
        <lane id=":J103_0_0" index="0" disallow="pedestrian" speed="6.51" length="9.03" shape="298.40,69.70 298.05,67.25 297.00,65.50 295.25,64.45 292.80,64.10"/>
    </edge>
    <edge id=":J103_1" function="internal">
        <lane id=":J103_1_0" index="0" disallow="pedestrian" speed="8.00" length="14.19" shape="298.40,69.70 298.95,65.85 300.60,63.10 303.35,61.45 307.20,60.90"/>
    </edge>
    <edge id=":J103_2" function="internal">
        <lane id=":J103_2_0" index="0" disallow="pedestrian" speed="6.51" length="4.75" shape="307.20,64.10 304.75,64.45 303.00,65.50 302.88,65.70"/>
    </edge>
    <edge id=":J103_3" function="internal">
        <lane id=":J103_3_0" index="0" disallow="pedestrian" speed="13.89" length="14.40" shape="307.20,64.10 292.80,64.10"/>
    </edge>
    <edge id=":J103_6" function="internal">
        <lane id=":J103_6_0" index="0" disallow="pedestrian" speed="6.51" length="4.28" shape="302.88,65.70 301.95,67.25 301.60,69.70"/>
    </edge>
    <edge id=":J103_4" function="internal">
        <lane id=":J103_4_0" index="0" disallow="pedestrian" speed="13.89" length="14.40" shape="292.80,60.90 307.20,60.90"/>
    </edge>
    <edge id=":J103_5" function="internal">
        <lane id=":J103_5_0" index="0" disallow="pedestrian" speed="8.00" length="4.07" shape="292.80,60.90 296.65,61.45 296.80,61.54"/>
    </edge>
    <edge id=":J103_7" function="internal">
        <lane id=":J103_7_0" index="0" disallow="pedestrian" speed="8.00" length="10.13" shape="296.80,61.54 299.40,63.10 301.05,65.85 301.60,69.70"/>
    </edge>
    <edge id=":J103_c0" function="crossing" crossingEdges="-E198 E198">
        <lane id=":J103_c0_0" index="0" allow="pedestrian" speed="1.00" length="6.40" width="4.00" shape="303.20,67.70 296.80,67.70"/>
    </edge>
    <edge id=":J103_c1" function="crossing" crossingEdges="E103 -E103">
        <lane id=":J103_c1_0" index="0" allow="pedestrian" speed="1.00" length="6.40" width="4.00" shape="305.20,59.30 305.20,65.70"/>
    </edge>
    <edge id=":J103_c2" function="crossing" crossingEdges="-E102 E102">
        <lane id=":J103_c2_0" index="0" allow="pedestrian" speed="1.00" length="6.40" width="4.00" shape="294.80,65.70 294.80,59.30"/>
    </edge>
    <edge id=":J103_w0" function="walkingarea">
        <lane id=":J103_w0_0" index="0" allow="pedestrian" speed="1.00" length="3.30" width="4.00" shape="292.80,65.70 292.80,67.70 294.80,69.70 296.80,69.70 296.69,68.48 296.36,67.48 295.80,66.70 295.02,66.14 294.02,65.81"/>
    </edge>
    <edge id=":J103_w1" function="walkingarea">
        <lane id=":J103_w1_0" index="0" allow="pedestrian" speed="1.00" length="3.30" width="4.00" shape="303.20,69.70 305.20,69.70 307.20,67.70 307.20,65.70 305.98,65.81 304.98,66.14 304.20,66.70 303.64,67.48 303.31,68.48"/>
    </edge>
    <edge id=":J103_w2" function="walkingarea">
        <lane id=":J103_w2_0" index="0" allow="pedestrian" speed="1.00" length="9.03" width="4.00" shape="303.20,59.30 307.20,59.30 307.20,57.30 292.80,57.30 292.80,59.30 296.80,59.30"/>
    </edge>
    <edge id=":J104_0" function="internal">
        <lane id=":J104_0_0" index="0" disallow="pedestrian" speed="13.89" length="4.00" shape="314.50,64.10 310.50,64.10"/>
    </edge>
    <edge id=":J104_1" function="internal">
        <lane id=":J104_1_0" index="0" disallow="pedestrian" speed="13.89" length="4.00" shape="310.50,60.90 314.50,60.90"/>
    </edge>
    <edge id=":J104_c0" function="crossing" crossingEdges="-E103 E103">
        <lane id=":J104_c0_0" index="0" allow="pedestrian" speed="1.00" length="6.40" width="4.00" shape="312.50,65.70 312.50,59.30"/>
    </edge>
    <edge id=":J104_w0" function="walkingarea">
        <lane id=":J104_w0_0" index="0" allow="pedestrian" speed="1.00" length="2.82" width="4.00" shape="314.50,65.70 310.50,65.70 310.50,67.70 314.50,67.70 314.50,65.70"/>
    </edge>
    <edge id=":J104_w1" function="walkingarea">
        <lane id=":J104_w1_0" index="0" allow="pedestrian" speed="1.00" length="2.82" width="4.00" shape="314.50,59.30 314.50,57.30 310.50,57.30 310.50,59.30 314.50,59.30"/>
    </edge>
    <edge id=":J105_0" function="internal">
        <lane id=":J105_0_0" index="0" disallow="pedestrian" speed="13.89" length="4.00" shape="327.00,64.10 323.00,64.10"/>
    </edge>
    <edge id=":J105_1" function="internal">
        <lane id=":J105_1_0" index="0" disallow="pedestrian" speed="13.89" length="4.00" shape="323.00,60.90 327.00,60.90"/>
    </edge>
    <edge id=":J105_c0" function="crossing" crossingEdges="E105 -E105">
        <lane id=":J105_c0_0" index="0" allow="pedestrian" speed="1.00" length="6.40" width="4.00" shape="325.00,59.30 325.00,65.70"/>
    </edge>
    <edge id=":J105_w0" function="walkingarea">
        <lane id=":J105_w0_0" index="0" allow="pedestrian" speed="1.00" length="2.82" width="4.00" shape="323.00,65.70 323.00,67.70 327.00,67.70 327.00,65.70 323.00,65.70"/>
    </edge>
    <edge id=":J105_w1" function="walkingarea">
        <lane id=":J105_w1_0" index="0" allow="pedestrian" speed="1.00" length="2.82" width="4.00" shape="323.00,59.30 327.00,59.30 327.00,57.30 323.00,57.30 323.00,59.30"/>
    </edge>
    <edge id=":J106_0" function="internal">
        <lane id=":J106_0_0" index="0" disallow="pedestrian" speed="6.51" length="9.03" shape="335.90,69.70 335.55,67.25 334.50,65.50 332.75,64.45 330.30,64.10"/>
    </edge>
    <edge id=":J106_1" function="internal">
        <lane id=":J106_1_0" index="0" disallow="pedestrian" speed="8.00" length="14.19" shape="335.90,69.70 336.45,65.85 338.10,63.10 340.85,61.45 344.70,60.90"/>
    </edge>
    <edge id=":J106_2" function="internal">
        <lane id=":J106_2_0" index="0" disallow="pedestrian" speed="6.51" length="4.75" shape="344.70,64.10 342.25,64.45 340.50,65.50 340.38,65.70"/>
    </edge>
    <edge id=":J106_3" function="internal">
        <lane id=":J106_3_0" index="0" disallow="pedestrian" speed="13.89" length="14.40" shape="344.70,64.10 330.30,64.10"/>
    </edge>
    <edge id=":J106_6" function="internal">
        <lane id=":J106_6_0" index="0" disallow="pedestrian" speed="6.51" length="4.28" shape="340.38,65.70 339.45,67.25 339.10,69.70"/>
    </edge>
    <edge id=":J106_4" function="internal">
        <lane id=":J106_4_0" index="0" disallow="pedestrian" speed="13.89" length="14.40" shape="330.30,60.90 344.70,60.90"/>
    </edge>
    <edge id=":J106_5" function="internal">
        <lane id=":J106_5_0" index="0" disallow="pedestrian" speed="8.00" length="4.07" shape="330.30,60.90 334.15,61.45 334.30,61.54"/>
    </edge>
    <edge id=":J106_7" function="internal">
        <lane id=":J106_7_0" index="0" disallow="pedestrian" speed="8.00" length="10.13" shape="334.30,61.54 336.90,63.10 338.55,65.85 339.10,69.70"/>
    </edge>
    <edge id=":J106_c0" function="crossing" crossingEdges="E200 -E200">
        <lane id=":J106_c0_0" index="0" allow="pedestrian" speed="1.00" length="6.40" width="4.00" shape="340.70,67.70 334.30,67.70"/>
    </edge>
    <edge id=":J106_c1" function="crossing" crossingEdges="E106 -E106">
        <lane id=":J106_c1_0" index="0" allow="pedestrian" speed="1.00" length="6.40" width="4.00" shape="342.70,59.30 342.70,65.70"/>
    </edge>
    <edge id=":J106_c2" function="crossing" crossingEdges="-E105 E105">
        <lane id=":J106_c2_0" index="0" allow="pedestrian" speed="1.00" length="6.40" width="4.00" shape="332.30,65.70 332.30,59.30"/>
    </edge>
    <edge id=":J106_w0" function="walkingarea">
        <lane id=":J106_w0_0" index="0" allow="pedestrian" speed="1.00" length="3.30" width="4.00" shape="330.30,65.70 330.30,67.70 332.30,69.70 334.30,69.70 334.19,68.48 333.86,67.48 333.30,66.70 332.52,66.14 331.52,65.81"/>
    </edge>
    <edge id=":J106_w1" function="walkingarea">
        <lane id=":J106_w1_0" index="0" allow="pedestrian" speed="1.00" length="3.30" width="4.00" shape="340.70,69.70 342.70,69.70 344.70,67.70 344.70,65.70 343.48,65.81 342.48,66.14 341.70,66.70 341.14,67.48 340.81,68.48"/>
    </edge>
    <edge id=":J106_w2" function="walkingarea">
        <lane id=":J106_w2_0" index="0" allow="pedestrian" speed="1.00" length="9.03" width="4.00" shape="340.70,59.30 344.70,59.30 344.70,57.30 330.30,57.30 330.30,59.30 334.30,59.30"/>
    </edge>
    <edge id=":J107_0" function="internal">
        <lane id=":J107_0_0" index="0" disallow="pedestrian" speed="13.89" length="4.00" shape="352.00,64.10 348.00,64.10"/>
    </edge>
    <edge id=":J107_1" function="internal">
        <lane id=":J107_1_0" index="0" disallow="pedestrian" speed="13.89" length="4.00" shape="348.00,60.90 352.00,60.90"/>
    </edge>
    <edge id=":J107_c0" function="crossing" crossingEdges="-E106 E106">
        <lane id=":J107_c0_0" index="0" allow="pedestrian" speed="1.00" length="6.40" width="4.00" shape="350.00,65.70 350.00,59.30"/>
    </edge>
    <edge id=":J107_w0" function="walkingarea">
        <lane id=":J107_w0_0" index="0" allow="pedestrian" speed="1.00" length="2.82" width="4.00" shape="352.00,65.70 348.00,65.70 348.00,67.70 352.00,67.70 352.00,65.70"/>
    </edge>
    <edge id=":J107_w1" function="walkingarea">
        <lane id=":J107_w1_0" index="0" allow="pedestrian" speed="1.00" length="2.82" width="4.00" shape="352.00,59.30 352.00,57.30 348.00,57.30 348.00,59.30 352.00,59.30"/>
    </edge>
    <edge id=":J108_0" function="internal">
        <lane id=":J108_0_0" index="0" disallow="pedestrian" speed="6.51" length="9.03" shape="360.90,69.70 360.55,67.25 359.50,65.50 357.75,64.45 355.30,64.10"/>
    </edge>
    <edge id=":J108_1" function="internal">
        <lane id=":J108_1_0" index="0" disallow="pedestrian" speed="8.00" length="14.19" shape="360.90,69.70 361.45,65.85 363.10,63.10 365.85,61.45 369.70,60.90"/>
    </edge>
    <edge id=":J108_2" function="internal">
        <lane id=":J108_2_0" index="0" disallow="pedestrian" speed="6.51" length="4.75" shape="369.70,64.10 367.25,64.45 365.50,65.50 365.38,65.70"/>
    </edge>
    <edge id=":J108_3" function="internal">
        <lane id=":J108_3_0" index="0" disallow="pedestrian" speed="13.89" length="14.40" shape="369.70,64.10 355.30,64.10"/>
    </edge>
    <edge id=":J108_6" function="internal">
        <lane id=":J108_6_0" index="0" disallow="pedestrian" speed="6.51" length="4.28" shape="365.38,65.70 364.45,67.25 364.10,69.70"/>
    </edge>
    <edge id=":J108_4" function="internal">
        <lane id=":J108_4_0" index="0" disallow="pedestrian" speed="13.89" length="14.40" shape="355.30,60.90 369.70,60.90"/>
    </edge>
    <edge id=":J108_5" function="internal">
        <lane id=":J108_5_0" index="0" disallow="pedestrian" speed="8.00" length="4.07" shape="355.30,60.90 359.15,61.45 359.30,61.54"/>
    </edge>
    <edge id=":J108_7" function="internal">
        <lane id=":J108_7_0" index="0" disallow="pedestrian" speed="8.00" length="10.13" shape="359.30,61.54 361.90,63.10 363.55,65.85 364.10,69.70"/>
    </edge>
    <edge id=":J108_c0" function="crossing" crossingEdges="-E152 E152">
        <lane id=":J108_c0_0" index="0" allow="pedestrian" speed="1.00" length="6.40" width="4.00" shape="365.70,67.70 359.30,67.70"/>
    </edge>
    <edge id=":J108_c1" function="crossing" crossingEdges="E108 -E108">
        <lane id=":J108_c1_0" index="0" allow="pedestrian" speed="1.00" length="6.40" width="4.00" shape="367.70,59.30 367.70,65.70"/>
    </edge>
    <edge id=":J108_c2" function="crossing" crossingEdges="-E107 E107">
        <lane id=":J108_c2_0" index="0" allow="pedestrian" speed="1.00" length="6.40" width="4.00" shape="357.30,65.70 357.30,59.30"/>
    </edge>
    <edge id=":J108_w0" function="walkingarea">
        <lane id=":J108_w0_0" index="0" allow="pedestrian" speed="1.00" length="3.30" width="4.00" shape="355.30,65.70 355.30,67.70 357.30,69.70 359.30,69.70 359.19,68.48 358.86,67.48 358.30,66.70 357.52,66.14 356.52,65.81"/>
    </edge>
    <edge id=":J108_w1" function="walkingarea">
        <lane id=":J108_w1_0" index="0" allow="pedestrian" speed="1.00" length="3.30" width="4.00" shape="365.70,69.70 367.70,69.70 369.70,67.70 369.70,65.70 368.48,65.81 367.48,66.14 366.70,66.70 366.14,67.48 365.81,68.48"/>
    </edge>
    <edge id=":J108_w2" function="walkingarea">
        <lane id=":J108_w2_0" index="0" allow="pedestrian" speed="1.00" length="9.03" width="4.00" shape="365.70,59.30 369.70,59.30 369.70,57.30 355.30,57.30 355.30,59.30 359.30,59.30"/>
    </edge>
    <edge id=":J109_0" function="internal">
        <lane id=":J109_0_0" index="0" disallow="pedestrian" speed="13.89" length="4.00" shape="377.00,64.10 373.00,64.10"/>
    </edge>
    <edge id=":J109_1" function="internal">
        <lane id=":J109_1_0" index="0" disallow="pedestrian" speed="13.89" length="4.00" shape="373.00,60.90 377.00,60.90"/>
    </edge>
    <edge id=":J109_c0" function="crossing" crossingEdges="E109 -E109">
        <lane id=":J109_c0_0" index="0" allow="pedestrian" speed="1.00" length="6.40" width="4.00" shape="375.00,59.30 375.00,65.70"/>
    </edge>
    <edge id=":J109_w0" function="walkingarea">
        <lane id=":J109_w0_0" index="0" allow="pedestrian" speed="1.00" length="2.82" width="4.00" shape="373.00,65.70 373.00,67.70 377.00,67.70 377.00,65.70 373.00,65.70"/>
    </edge>
    <edge id=":J109_w1" function="walkingarea">
        <lane id=":J109_w1_0" index="0" allow="pedestrian" speed="1.00" length="2.82" width="4.00" shape="373.00,59.30 377.00,59.30 377.00,57.30 373.00,57.30 373.00,59.30"/>
    </edge>
    <edge id=":J11_0" function="internal">
        <lane id=":J11_0_0" index="0" disallow="pedestrian" speed="13.89" length="4.00" shape="27.25,89.10 23.25,89.10"/>
    </edge>
    <edge id=":J11_1" function="internal">
        <lane id=":J11_1_0" index="0" disallow="pedestrian" speed="13.89" length="4.00" shape="23.25,85.90 27.25,85.90"/>
    </edge>
    <edge id=":J11_c0" function="crossing" crossingEdges="E9 -E9">
        <lane id=":J11_c0_0" index="0" allow="pedestrian" speed="1.00" length="6.40" width="4.00" shape="25.25,84.30 25.25,90.70"/>
    </edge>
    <edge id=":J11_c1" function="crossing" crossingEdges="-E8 E8">
        <lane id=":J11_c1_0" index="0" allow="pedestrian" speed="1.00" length="6.40" width="4.00" shape="25.25,90.70 25.25,84.30"/>
    </edge>
    <edge id=":J11_w0" function="walkingarea">
        <lane id=":J11_w0_0" index="0" allow="pedestrian" speed="1.00" length="2.16" width="4.00" shape="27.25,90.70 23.25,90.70 23.25,92.70 27.25,92.70 27.25,90.70 23.25,90.70"/>
    </edge>
    <edge id=":J11_w1" function="walkingarea">
        <lane id=":J11_w1_0" index="0" allow="pedestrian" speed="1.00" length="2.16" width="4.00" shape="23.25,84.30 27.25,84.30 27.25,82.30 23.25,82.30 23.25,84.30 27.25,84.30"/>
    </edge>
    <edge id=":J110_0" function="internal">
        <lane id=":J110_0_0" index="0" disallow="pedestrian" speed="6.51" length="9.03" shape="385.90,69.70 385.55,67.25 384.50,65.50 382.75,64.45 380.30,64.10"/>
    </edge>
    <edge id=":J110_1" function="internal">
        <lane id=":J110_1_0" index="0" disallow="pedestrian" speed="8.00" length="14.19" shape="385.90,69.70 386.45,65.85 388.10,63.10 390.85,61.45 394.70,60.90"/>
    </edge>
    <edge id=":J110_2" function="internal">
        <lane id=":J110_2_0" index="0" disallow="pedestrian" speed="6.51" length="4.75" shape="394.70,64.10 392.25,64.45 390.50,65.50 390.38,65.70"/>
    </edge>
    <edge id=":J110_3" function="internal">
        <lane id=":J110_3_0" index="0" disallow="pedestrian" speed="13.89" length="14.40" shape="394.70,64.10 380.30,64.10"/>
    </edge>
    <edge id=":J110_6" function="internal">
        <lane id=":J110_6_0" index="0" disallow="pedestrian" speed="6.51" length="4.28" shape="390.38,65.70 389.45,67.25 389.10,69.70"/>
    </edge>
    <edge id=":J110_4" function="internal">
        <lane id=":J110_4_0" index="0" disallow="pedestrian" speed="13.89" length="14.40" shape="380.30,60.90 394.70,60.90"/>
    </edge>
    <edge id=":J110_5" function="internal">
        <lane id=":J110_5_0" index="0" disallow="pedestrian" speed="8.00" length="4.07" shape="380.30,60.90 384.15,61.45 384.30,61.54"/>
    </edge>