<routes>
  <vType id="agv" type="e-scooter" length="1.1" width="0.4" accel="10" decel="10" sigma="0"/>
  <route id="route_0" edges="E0 E1 E2 E3 E4 E5 -E167 -E166 -E165 -E164 -E163 -E162 -E161 -E160 -E159 -E158 -E157 -E156 -E155 -E154 -E153 E95 E96 E97 E98 E99 E100 E101 E102 E103 E104 E105 E106 E107 E108 E109 -E215 -E214 -E213 -E212 -E211 -E210 -E209 -E208 -E207 -E206 -E205 -E204 -E203 -E202 E83 E84 E85 E86 E90 E91 E92"/>
  <flow id="flow0" type="agv" route="route_0" begin="0" period="3" minGap="1.10" maxSpeed="4.00" number="35"/>
  <personFlow begin="0" id="p10a" impatience="0.04" period="7">
    <walk from="E10" to="-E10"/>
  </personFlow>
  <personFlow begin="0" id="p10b" impatience="0.96" period="5">
    <walk from="-E10" to="E10"/>
  </personFlow>
  <personFlow begin="0" id="p101a" impatience="0.38" period="10">
    <walk from="E101" to="-E101"/>
  </personFlow>
  <personFlow begin="0" id="p101b" impatience="0.62" period="5">
    <walk from="-E101" to="E101"/>
  </personFlow>
  <personFlow begin="0" id="p102a" impatience="0.38" period="6">
    <walk from="E102" to="-E102"/>
  </personFlow>
  <personFlow begin="0" id="p102b" impatience="0.62" period="7">
    <walk from="-E102" to="E102"/>
  </personFlow>
  <personFlow begin="0" id="p103a" impatience="0.39" period="6">
    <walk from="E103" to="-E103"/>
  </personFlow>
  <personFlow begin="0" id="p103b" impatience="0.61" period="5">
    <walk from="-E103" to="E103"/>
  </personFlow>
  <personFlow begin="0" id="p104a" impatience="0.39" period="7">
    <walk from="E104" to="-E104"/>
  </personFlow>
  <personFlow begin="0" id="p104b" impatience="0.61" period="6">
    <walk from="-E104" to="E104"/>
  </personFlow>
  <personFlow begin="0" id="p105a" impatience="0.39" period="6">
    <walk from="E105" to="-E105"/>
  </personFlow>
  <personFlow begin="0" id="p105b" impatience="0.61" period="5">
    <walk from="-E105" to="E105"/>
  </personFlow>
  <personFlow begin="0" id="p106a" impatience="0.40" period="7">
    <walk from="E106" to="-E106"/>
  </personFlow>
  <personFlow begin="0" id="p106b" impatience="0.60" period="6">
    <walk from="-E106" to="E106"/>
  </personFlow>
  <personFlow begin="0" id="p109a" impatience="0.41" period="7">
    <walk from="E109" to="-E109"/>
  </personFlow>
  <personFlow begin="0" id="p109b" impatience="0.59" period="7">
    <walk from="-E109" to="E109"/>
  </personFlow>
  <personFlow begin="0" id="p11a" impatience="0.04" period="7">
    <walk from="E11" to="-E11"/>
  </personFlow>
  <personFlow begin="0" id="p11b" impatience="0.96" period="5">
    <walk from="-E11" to="E11"/>
  </personFlow>
  <personFlow begin="0" id="p115a" impatience="0.43" period="8">
    <walk from="E115" to="-E115"/>
  </personFlow>
  <personFlow begin="0" id="p115b" impatience="0.57" period="5">
    <walk from="-E115" to="E115"/>
  </personFlow>
  <personFlow begin="0" id="p116a" impatience="0.44" period="6">
    <walk from="E116" to="-E116"/>
  </personFlow>
  <personFlow begin="0" id="p116b" impatience="0.56" period="7">
    <walk from="-E116" to="E116"/>
  </personFlow>
  <personFlow begin="0" id="p117a" impatience="0.44" period="6">
    <walk from="E117" to="-E117"/>
  </personFlow>
  <personFlow begin="0" id="p117b" impatience="0.56" period="10">
    <walk from="-E117" to="E117"/>
  </personFlow>
  <personFlow begin="0" id="p12a" impatience="0.05" period="7">
    <walk from="E12" to="-E12"/>
  </personFlow>
  <personFlow begin="0" id="p12b" impatience="0.95" period="5">
    <walk from="-E12" to="E12"/>
  </personFlow>
  <personFlow begin="0" id="p121a" impatience="0.45" period="5">
    <walk from="E121" to="-E121"/>
  </personFlow>
  <personFlow begin="0" id="p121b" impatience="0.55" period="7">
    <walk from="-E121" to="E121"/>
  </personFlow>
  <personFlow begin="0" id="p124a" impatience="0.47" period="10">
    <walk from="E124" to="-E124"/>
  </personFlow>
  <personFlow begin="0" id="p124b" impatience="0.53" period="5">
    <walk from="-E124" to="E124"/>
  </personFlow>
  <personFlow begin="1" id="p13a" impatience="0.05" period="8">
    <walk from="E13" to="-E13"/>
  </personFlow>
  <personFlow begin="1" id="p13b" impatience="0.95" period="5">
    <walk from="-E13" to="E13"/>
  </personFlow>
  <personFlow begin="1" id="p130a" impatience="0.49" period="6">
    <walk from="E130" to="-E130"/>
  </personFlow>
  <personFlow begin="1" id="p130b" impatience="0.51" period="9">
    <walk from="-E130" to="E130"/>
  </personFlow>
  <personFlow begin="1" id="p135a" impatience="0.51" period="7">
    <walk from="E135" to="-E135"/>
  </personFlow>
  <personFlow begin="1" id="p135b" impatience="0.49" period="6">
    <walk from="-E135" to="E135"/>
  </personFlow>
  <personFlow begin="1" id="p136a" impatience="0.51" period="5">
    <walk from="E136" to="-E136"/>
  </personFlow>
  <personFlow begin="1" id="p136b" impatience="0.49" period="5">
    <walk from="-E136" to="E136"/>
  </personFlow>
  <personFlow begin="1" id="p14a" impatience="0.05" period="10">
    <walk from="E14" to="-E14"/>
  </personFlow>
  <personFlow begin="1" id="p14b" impatience="0.95" period="7">
    <walk from="-E14" to="E14"/>
  </personFlow>
  <personFlow begin="1" id="p141a" impatience="0.53" period="6">
    <walk from="E141" to="-E141"/>
  </personFlow>
  <personFlow begin="1" id="p141b" impatience="0.47" period="6">
    <walk from="-E141" to="E141"/>
  </personFlow>
  <personFlow begin="1" id="p142a" impatience="0.53" period="6">
    <walk from="E142" to="-E142"/>
  </personFlow>
  <personFlow begin="1" id="p142b" impatience="0.47" period="7">
    <walk from="-E142" to="E142"/>
  </personFlow>
  <personFlow begin="1" id="p143a" impatience="0.54" period="6">
    <walk from="E143" to="-E143"/>
  </personFlow>
  <personFlow begin="1" id="p143b" impatience="0.46" period="5">
    <walk from="-E143" to="E143"/>
  </personFlow>
  <personFlow begin="1" id="p144a" impatience="0.54" period="5">
    <walk from="E144" to="-E144"/>
  </personFlow>
  <personFlow begin="1" id="p144b" impatience="0.46" period="5">
    <walk from="-E144" to="E144"/>
  </personFlow>
  <personFlow begin="1" id="p147a" impatience="0.55" period="5">
    <walk from="E147" to="-E147"/>
  </personFlow>
  <personFlow begin="1" id="p147b" impatience="0.45" period="9">
    <walk from="-E147" to="E147"/>
  </personFlow>
  <personFlow begin="1" id="p153a" impatience="0.57" period="5">
    <walk from="E153" to="-E153"/>
  </personFlow>
  <personFlow begin="1" id="p153b" impatience="0.43" period="6">
    <walk from="-E153" to="E153"/>
  </personFlow>
  <personFlow begin="1" id="p154a" impatience="0.58" period="7">
    <walk from="E154" to="-E154"/>
  </personFlow>
  <personFlow begin="1" id="p154b" impatience="0.42" period="7">
    <walk from="-E154" to="E154"/>
  </personFlow>
  <personFlow begin="1" id="p156a" impatience="0.59" period="7">
    <walk from="E156" to="-E156"/>
  </personFlow>
  <personFlow begin="1" id="p156b" impatience="0.41" period="5">
    <walk from="-E156" to="E156"/>
  </personFlow>
  <personFlow begin="1" id="p158a" impatience="0.59" period="6">
    <walk from="E158" to="-E158"/>
  </personFlow>
  <personFlow begin="1" id="p158b" impatience="0.41" period="5">
    <walk from="-E158" to="E158"/>
  </personFlow>
  <personFlow begin="1" id="p159a" impatience="0.60" period="5">
    <walk from="E159" to="-E159"/>
  </personFlow>
  <personFlow begin="1" id="p159b" impatience="0.40" period="6">
    <walk from="-E159" to="E159"/>
  </personFlow>
  <personFlow begin="2" id="p160a" impatience="0.60" period="5">
    <walk from="E160" to="-E160"/>
  </personFlow>
  <personFlow begin="2" id="p160b" impatience="0.40" period="6">
    <walk from="-E160" to="E160"/>
  </personFlow>
  <personFlow begin="2" id="p162a" impatience="0.61" period="7">
    <walk from="E162" to="-E162"/>
  </personFlow>
  <personFlow begin="2" id="p162b" impatience="0.39" period="6">
    <walk from="-E162" to="E162"/>
  </personFlow>
  <personFlow begin="2" id="p164a" impatience="0.62" period="6">
    <walk from="E164" to="-E164"/>
  </personFlow>
  <personFlow begin="2" id="p164b" impatience="0.38" period="7">
    <walk from="-E164" to="E164"/>
  </personFlow>
  <personFlow begin="2" id="p165a" impatience="0.62" period="6">
    <walk from="E165" to="-E165"/>
  </personFlow>
  <personFlow begin="2" id="p165b" impatience="0.38" period="9">
    <walk from="-E165" to="E165"/>
  </personFlow>
  <personFlow begin="2" id="p167a" impatience="0.63" period="7">
    <walk from="E167" to="-E167"/>
  </personFlow>
  <personFlow begin="2" id="p167b" impatience="0.37" period="5">
    <walk from="-E167" to="E167"/>
  </personFlow>
  <personFlow begin="2" id="p170a" impatience="0.64" period="5">
    <walk from="E170" to="-E170"/>
  </personFlow>
  <personFlow begin="2" id="p170b" impatience="0.36" period="5">
    <walk from="-E170" to="E170"/>
  </personFlow>
  <personFlow begin="2" id="p171a" impatience="0.64" period="7">
    <walk from="E171" to="-E171"/>
  </personFlow>
  <personFlow begin="2" id="p171b" impatience="0.36" period="6">
    <walk from="-E171" to="E171"/>
  </personFlow>
  <personFlow begin="2" id="p172a" impatience="0.65" period="5">
    <walk from="E172" to="-E172"/>
  </personFlow>
  <personFlow begin="2" id="p172b" impatience="0.35" period="6">
    <walk from="-E172" to="E172"/>
  </personFlow>
  <personFlow begin="2" id="p176a" impatience="0.66" period="5">
    <walk from="E176" to="-E176"/>
  </personFlow>
  <personFlow begin="2" id="p176b" impatience="0.34" period="7">
    <walk from="-E176" to="E176"/>
  </personFlow>
  <personFlow begin="2" id="p178a" impatience="0.67" period="5">
    <walk from="E178" to="-E178"/>
  </personFlow>
  <personFlow begin="2" id="p178b" impatience="0.33" period="5">
    <walk from="-E178" to="E178"/>
  </personFlow>
  <personFlow begin="2" id="p191a" impatience="0.72" period="9">
    <walk from="E191" to="-E191"/>
  </personFlow>
  <personFlow begin="2" id="p191b" impatience="0.28" period="7">
    <walk from="-E191" to="E191"/>
  </personFlow>
  <personFlow begin="2" id="p192a" impatience="0.72" period="10">
    <walk from="E192" to="-E192"/>
  </personFlow>
  <personFlow begin="2" id="p192b" impatience="0.28" period="6">
    <walk from="-E192" to="E192"/>
  </personFlow>
  <personFlow begin="2" id="p193a" impatience="0.72" period="5">
    <walk from="E193" to="-E193"/>
  </personFlow>
  <personFlow begin="2" id="p193b" impatience="0.28" period="7">
    <walk from="-E193" to="E193"/>
  </personFlow>
  <personFlow begin="2" id="p196a" impatience="0.74" period="5">
    <walk from="E196" to="-E196"/>
  </personFlow>
  <personFlow begin="2" id="p196b" impatience="0.26" period="7">
    <walk from="-E196" to="E196"/>
  </personFlow>
  <personFlow begin="2" id="p198a" impatience="0.74" period="10">
    <walk from="E198" to="-E198"/>
  </personFlow>
  <personFlow begin="2" id="p198b" impatience="0.26" period="5">
    <walk from="-E198" to="E198"/>
  </personFlow>
  <personFlow begin="3" id="p20a" impatience="0.08" period="10">
    <walk from="E20" to="-E20"/>
  </personFlow>
  <personFlow begin="3" id="p20b" impatience="0.92" period="6">
    <walk from="-E20" to="E20"/>
  </personFlow>
  <personFlow begin="3" id="p202a" impatience="0.76" period="6">
    <walk from="E202" to="-E202"/>
  </personFlow>
  <personFlow begin="3" id="p202b" impatience="0.24" period="6">
    <walk from="-E202" to="E202"/>
  </personFlow>
  <personFlow begin="3" id="p205a" impatience="0.77" period="6">
    <walk from="E205" to="-E205"/>
  </personFlow>
  <personFlow begin="3" id="p205b" impatience="0.23" period="5">
    <walk from="-E205" to="E205"/>
  </personFlow>
  <personFlow begin="3" id="p207a" impatience="0.78" period="7">
    <walk from="E207" to="-E207"/>
  </personFlow>
  <personFlow begin="3" id="p207b" impatience="0.22" period="5">
    <walk from="-E207" to="E207"/>
  </personFlow>
  <personFlow begin="3" id="p217a" impatience="0.81" period="5">
    <walk from="E217" to="-E217"/>
  </personFlow>
  <personFlow begin="3" id="p217b" impatience="0.19" period="7">
    <walk from="-E217" to="E217"/>
  </personFlow>
  <personFlow begin="3" id="p22a" impatience="0.08" period="6">
    <walk from="E22" to="-E22"/>
  </personFlow>
  <personFlow begin="3" id="p22b" impatience="0.92" period="6">
    <walk from="-E22" to="E22"/>
  </personFlow>
  <personFlow begin="3" id="p221a" impatience="0.83" period="9">
    <walk from="E221" to="-E221"/>
  </personFlow>
  <personFlow begin="3" id="p221b" impatience="0.17" period="6">
    <walk from="-E221" to="E221"/>
  </personFlow>
  <personFlow begin="3" id="p226a" impatience="0.85" period="5">
    <walk from="E226" to="-E226"/>
  </personFlow>
  <personFlow begin="3" id="p226b" impatience="0.15" period="6">
    <walk from="-E226" to="E226"/>
  </personFlow>
  <personFlow begin="3" id="p229a" impatience="0.86" period="7">
    <walk from="E229" to="-E229"/>
  </personFlow>
  <personFlow begin="3" id="p229b" impatience="0.14" period="6">
    <walk from="-E229" to="E229"/>
  </personFlow>
  <personFlow begin="3" id="p23a" impatience="0.09" period="6">
    <walk from="E23" to="-E23"/>
  </personFlow>
  <personFlow begin="3" id="p23b" impatience="0.91" period="7">
    <walk from="-E23" to="E23"/>
  </personFlow>
  <personFlow begin="3" id="p231a" impatience="0.87" period="7">
    <walk from="E231" to="-E231"/>
  </personFlow>
  <personFlow begin="3" id="p231b" impatience="0.13" period="10">
    <walk from="-E231" to="E231"/>
  </personFlow>
  <personFlow begin="3" id="p235a" impatience="0.88" period="6">
    <walk from="E235" to="-E235"/>
  </personFlow>
  <personFlow begin="3" id="p235b" impatience="0.12" period="6">
    <walk from="-E235" to="E235"/>
  </personFlow>
  <personFlow begin="3" id="p239a" impatience="0.90" period="6">
    <walk from="E239" to="-E239"/>
  </personFlow>
  <personFlow begin="3" id="p239b" impatience="0.10" period="6">
    <walk from="-E239" to="E239"/>
  </personFlow>
  <personFlow begin="3" id="p244a" impatience="0.92" period="5">
    <walk from="E244" to="-E244"/>
  </personFlow>
  <personFlow begin="3" id="p244b" impatience="0.08" period="5">
    <walk from="-E244" to="E244"/>
  </personFlow>
  <personFlow begin="3" id="p246a" impatience="0.92" period="6">
    <walk from="E246" to="-E246"/>
  </personFlow>
  <personFlow begin="3" id="p246b" impatience="0.08" period="8">
    <walk from="-E246" to="E246"/>
  </personFlow>
  <personFlow begin="4" id="p250a" impatience="0.94" period="6">
    <walk from="E250" to="-E250"/>
  </personFlow>
  <personFlow begin="4" id="p250b" impatience="0.06" period="5">
    <walk from="-E250" to="E250"/>
  </personFlow>
  <personFlow begin="4" id="p252a" impatience="0.95" period="5">
    <walk from="E252" to="-E252"/>
  </personFlow>
  <personFlow begin="4" id="p252b" impatience="0.05" period="6">
    <walk from="-E252" to="E252"/>
  </personFlow>
  <personFlow begin="4" id="p253a" impatience="0.95" period="5">
    <walk from="E253" to="-E253"/>
  </personFlow>
  <personFlow begin="4" id="p253b" impatience="0.05" period="5">
    <walk from="-E253" to="E253"/>
  </personFlow>
  <personFlow begin="4" id="p256a" impatience="0.96" period="6">
    <walk from="E256" to="-E256"/>
  </personFlow>
  <personFlow begin="4" id="p256b" impatience="0.04" period="6">
    <walk from="-E256" to="E256"/>
  </personFlow>
  <personFlow begin="4" id="p260a" impatience="0.98" period="6">
    <walk from="E260" to="-E260"/>
  </personFlow>
  <personFlow begin="4" id="p260b" impatience="0.02" period="7">
    <walk from="-E260" to="E260"/>
  </personFlow>
  <personFlow begin="4" id="p261a" impatience="0.98" period="7">
    <walk from="E261" to="-E261"/>
  </personFlow>
  <personFlow begin="4" id="p261b" impatience="0.02" period="5">
    <walk from="-E261" to="E261"/>
  </personFlow>
  <personFlow begin="4" id="p265a" impatience="0.99" period="10">
    <walk from="E265" to="-E265"/>
  </personFlow>
  <personFlow begin="4" id="p265b" impatience="0.01" period="7">
    <walk from="-E265" to="E265"/>
  </personFlow>
  <personFlow begin="4" id="p269a" impatience="0.51" period="5">
    <walk from="E269" to="-E269"/>
  </personFlow>
  <personFlow begin="4" id="p269b" impatience="0.49" period="10">
    <walk from="-E269" to="E269"/>
  </personFlow>
  <personFlow begin="4" id="p27a" impatience="0.10" period="5">
    <walk from="E27" to="-E27"/>
  </personFlow>
  <personFlow begin="4" id="p27b" impatience="0.90" period="5">
    <walk from="-E27" to="E27"/>
  </personFlow>
  <personFlow begin="4" id="p270a" impatience="0.51" period="7">
    <walk from="E270" to="-E270"/>
  </personFlow>
  <personFlow begin="4" id="p270b" impatience="0.49" period="8">
    <walk from="-E270" to="E270"/>
  </personFlow>
  <personFlow begin="4" id="p271a" impatience="0.51" period="5">
    <walk from="E271" to="-E271"/>
  </personFlow>
  <personFlow begin="4" id="p271b" impatience="0.49" period="6">
    <walk from="-E271" to="E271"/>
  </personFlow>
  <personFlow begin="4" id="p275a" impatience="0.52" period="7">
    <walk from="E275" to="-E275"/>
  </personFlow>
  <personFlow begin="4" id="p275b" impatience="0.48" period="6">
    <walk from="-E275" to="E275"/>
  </personFlow>
  <personFlow begin="4" id="p281a" impatience="0.53" period="5">
    <walk from="E281" to="-E281"/>
  </personFlow>
  <personFlow begin="4" id="p281b" impatience="0.47" period="6">
    <walk from="-E281" to="E281"/>
  </personFlow>
  <personFlow begin="4" id="p282a" impatience="0.53" period="5">
    <walk from="E282" to="-E282"/>
  </personFlow>
  <personFlow begin="4" id="p282b" impatience="0.47" period="5">
    <walk from="-E282" to="E282"/>
  </personFlow>
  <personFlow begin="4" id="p286a" impatience="0.54" period="7">
    <walk from="E286" to="-E286"/>
  </personFlow>
  <personFlow begin="4" id="p286b" impatience="0.46" period="5">
    <walk from="-E286" to="E286"/>
  </personFlow>
  <personFlow begin="5" id="p287a" impatience="0.54" period="5">
    <walk from="E287" to="-E287"/>
  </personFlow>
  <personFlow begin="5" id="p287b" impatience="0.46" period="6">
    <walk from="-E287" to="E287"/>
  </personFlow>
  <personFlow begin="5" id="p289a" impatience="0.54" period="8">
    <walk from="E289" to="-E289"/>
  </personFlow>
  <personFlow begin="5" id="p289b" impatience="0.46" period="6">
    <walk from="-E289" to="E289"/>
  </personFlow>
  <personFlow begin="5" id="p291a" impatience="0.55" period="5">
    <walk from="E291" to="-E291"/>
  </personFlow>
  <personFlow begin="5" id="p291b" impatience="0.45" period="6">
    <walk from="-E291" to="E291"/>
  </personFlow>
  <personFlow begin="5" id="p294a" impatience="0.55" period="7">
    <walk from="E294" to="-E294"/>
  </personFlow>
  <personFlow begin="5" id="p294b" impatience="0.45" period="6">
    <walk from="-E294" to="E294"/>
  </personFlow>
  <personFlow begin="5" id="p3a" impatience="0.01" period="10">
    <walk from="E3" to="-E3"/>
  </personFlow>
  <personFlow begin="5" id="p3b" impatience="0.99" period="6">
    <walk from="-E3" to="E3"/>
  </personFlow>
  <personFlow begin="5" id="p30a" impatience="0.11" period="6">
    <walk from="E30" to="-E30"/>
  </personFlow>
  <personFlow begin="5" id="p30b" impatience="0.89" period="6">
    <walk from="-E30" to="E30"/>
  </personFlow>
  <personFlow begin="5" id="p305a" impatience="0.57" period="5">
    <walk from="E305" to="-E305"/>
  </personFlow>
  <personFlow begin="5" id="p305b" impatience="0.43" period="5">
    <walk from="-E305" to="E305"/>
  </personFlow>
  <personFlow begin="5" id="p306a" impatience="0.58" period="5">
    <walk from="E306" to="-E306"/>
  </personFlow>
  <personFlow begin="5" id="p306b" impatience="0.42" period="5">
    <walk from="-E306" to="E306"/>
  </personFlow>
  <personFlow begin="5" id="p307a" impatience="0.58" period="7">
    <walk from="E307" to="-E307"/>
  </personFlow>
  <personFlow begin="5" id="p307b" impatience="0.42" period="6">
    <walk from="-E307" to="E307"/>
  </personFlow>
  <personFlow begin="5" id="p309a" impatience="0.58" period="6">
    <walk from="E309" to="-E309"/>
  </personFlow>
  <personFlow begin="5" id="p309b" impatience="0.42" period="7">
    <walk from="-E309" to="E309"/>
  </personFlow>
  <personFlow begin="5" id="p31a" impatience="0.12" period="7">
    <walk from="E31" to="-E31"/>
  </personFlow>
  <personFlow begin="5" id="p31b" impatience="0.88" period="5">
    <walk from="-E31" to="E31"/>
  </personFlow>
  <personFlow begin="5" id="p311a" impatience="0.59" period="5">
    <walk from="E311" to="-E311"/>
  </personFlow>
  <personFlow begin="5" id="p311b" impatience="0.41" period="6">
    <walk from="-E311" to="E311"/>
  </personFlow>
  <personFlow begin="5" id="p312a" impatience="0.59" period="5">
    <walk from="E312" to="-E312"/>
  </personFlow>
  <personFlow begin="5" id="p312b" impatience="0.41" period="7">
    <walk from="-E312" to="E312"/>
  </personFlow>
  <personFlow begin="5" id="p314a" impatience="0.59" period="5">
    <walk from="E314" to="-E314"/>
  </personFlow>
  <personFlow begin="5" id="p314b" impatience="0.41" period="5">
    <walk from="-E314" to="E314"/>
  </personFlow>
  <personFlow begin="5" id="p315a" impatience="0.59" period="6">
    <walk from="E315" to="-E315"/>
  </personFlow>
  <personFlow begin="5" id="p315b" impatience="0.41" period="5">
    <walk from="-E315" to="E315"/>
  </personFlow>
  <personFlow begin="6" id="p316a" impatience="0.60" period="5">
    <walk from="E316" to="-E316"/>
  </personFlow>
  <personFlow begin="6" id="p316b" impatience="0.40" period="7">
    <walk from="-E316" to="E316"/>
  </personFlow>
  <personFlow begin="6" id="p32a" impatience="0.12" period="6">
    <walk from="E32" to="-E32"/>
  </personFlow>
  <personFlow begin="6" id="p32b" impatience="0.88" period="7">
    <walk from="-E32" to="E32"/>
  </personFlow>
  <personFlow begin="6" id="p325a" impatience="0.61" period="7">
    <walk from="E325" to="-E325"/>
  </personFlow>
  <personFlow begin="6" id="p325b" impatience="0.39" period="5">
    <walk from="-E325" to="E325"/>
  </personFlow>
  <personFlow begin="6" id="p329a" impatience="0.62" period="7">
    <walk from="E329" to="-E329"/>
  </personFlow>
  <personFlow begin="6" id="p329b" impatience="0.38" period="6">
    <walk from="-E329" to="E329"/>
  </personFlow>
  <personFlow begin="6" id="p33a" impatience="0.12" period="5">
    <walk from="E33" to="-E33"/>
  </personFlow>
  <personFlow begin="6" id="p33b" impatience="0.88" period="5">
    <walk from="-E33" to="E33"/>
  </personFlow>
  <personFlow begin="6" id="p330a" impatience="0.62" period="5">
    <walk from="E330" to="-E330"/>
  </personFlow>
  <personFlow begin="6" id="p330b" impatience="0.38" period="5">
    <walk from="-E330" to="E330"/>
  </personFlow>
  <personFlow begin="6" id="p333a" impatience="0.63" period="7">
    <walk from="E333" to="-E333"/>
  </personFlow>
  <personFlow begin="6" id="p333b" impatience="0.37" period="8">
    <walk from="-E333" to="E333"/>
  </personFlow>
  <personFlow begin="6" id="p335a" impatience="0.63" period="7">
    <walk from="E335" to="-E335"/>
  </personFlow>
  <personFlow begin="6" id="p335b" impatience="0.37" period="7">
    <walk from="-E335" to="E335"/>
  </personFlow>
  <personFlow begin="6" id="p341a" impatience="0.64" period="5">
    <walk from="E341" to="-E341"/>
  </personFlow>
  <personFlow begin="6" id="p341b" impatience="0.36" period="6">
    <walk from="-E341" to="E341"/>
  </personFlow>
  <personFlow begin="6" id="p343a" impatience="0.65" period="7">
    <walk from="E343" to="-E343"/>
  </personFlow>
  <personFlow begin="6" id="p343b" impatience="0.35" period="6">
    <walk from="-E343" to="E343"/>
  </personFlow>
  <personFlow begin="6" id="p346a" impatience="0.65" period="5">
    <walk from="E346" to="-E346"/>
  </personFlow>
  <personFlow begin="6" id="p346b" impatience="0.35" period="5">
    <walk from="-E346" to="E346"/>
  </personFlow>
  <personFlow begin="6" id="p35a" impatience="0.13" period="7">
    <walk from="E35" to="-E35"/>
  </personFlow>
  <personFlow begin="6" id="p35b" impatience="0.87" period="5">
    <walk from="-E35" to="E35"/>
  </personFlow>
  <personFlow begin="6" id="p352a" impatience="0.66" period="5">
    <walk from="E352" to="-E352"/>
  </personFlow>
  <personFlow begin="6" id="p352b" impatience="0.34" period="10">
    <walk from="-E352" to="E352"/>
  </personFlow>
  <personFlow begin="6" id="p355a" impatience="0.67" period="6">
    <walk from="E355" to="-E355"/>
  </personFlow>
  <personFlow begin="6" id="p355b" impatience="0.33" period="5">
    <walk from="-E355" to="E355"/>
  </personFlow>
  <personFlow begin="6" id="p356a" impatience="0.67" period="6">
    <walk from="E356" to="-E356"/>
  </personFlow>
  <personFlow begin="6" id="p356b" impatience="0.33" period="6">
    <walk from="-E356" to="E356"/>
  </personFlow>
  <personFlow begin="7" id="p36a" impatience="0.14" period="5">
    <walk from="E36" to="-E36"/>
  </personFlow>
  <personFlow begin="7" id="p36b" impatience="0.86" period="6">
    <walk from="-E36" to="E36"/>
  </personFlow>
  <personFlow begin="7" id="p360a" impatience="0.68" period="6">
    <walk from="E360" to="-E360"/>
  </personFlow>
  <personFlow begin="7" id="p360b" impatience="0.32" period="5">
    <walk from="-E360" to="E360"/>
  </personFlow>
  <personFlow begin="7" id="p361a" impatience="0.68" period="6">
    <walk from="E361" to="-E361"/>
  </personFlow>
  <personFlow begin="7" id="p361b" impatience="0.32" period="8">
    <walk from="-E361" to="E361"/>
  </personFlow>
  <personFlow begin="7" id="p363a" impatience="0.68" period="6">
    <walk from="E363" to="-E363"/>
  </personFlow>
  <personFlow begin="7" id="p363b" impatience="0.32" period="7">
    <walk from="-E363" to="E363"/>
  </personFlow>
  <personFlow begin="7" id="p364a" impatience="0.69" period="6">
    <walk from="E364" to="-E364"/>
  </personFlow>
  <personFlow begin="7" id="p364b" impatience="0.31" period="6">
    <walk from="-E364" to="E364"/>
  </personFlow>
  <personFlow begin="7" id="p367a" impatience="0.69" period="7">
    <walk from="E367" to="-E367"/>
  </personFlow>
  <personFlow begin="7" id="p367b" impatience="0.31" period="9">
    <walk from="-E367" to="E367"/>
  </personFlow>
  <personFlow begin="7" id="p370a" impatience="0.70" period="7">
    <walk from="E370" to="-E370"/>
  </personFlow>
  <personFlow begin="7" id="p370b" impatience="0.30" period="5">
    <walk from="-E370" to="E370"/>
  </personFlow>
  <personFlow begin="7" id="p376a" impatience="0.71" period="6">
    <walk from="E376" to="-E376"/>
  </personFlow>
  <personFlow begin="7" id="p376b" impatience="0.29" period="7">
    <walk from="-E376" to="E376"/>
  </personFlow>
  <personFlow begin="7" id="p378a" impatience="0.71" period="7">
    <walk from="E378" to="-E378"/>
  </personFlow>
  <personFlow begin="7" id="p378b" impatience="0.29" period="9">
    <walk from="-E378" to="E378"/>
  </personFlow>
  <personFlow begin="7" id="p379a" impatience="0.71" period="5">
    <walk from="E379" to="-E379"/>
  </personFlow>
  <personFlow begin="7" id="p379b" impatience="0.29" period="6">
    <walk from="-E379" to="E379"/>
  </personFlow>
  <personFlow begin="7" id="p380a" impatience="0.72" period="7">
    <walk from="E380" to="-E380"/>
  </personFlow>
  <personFlow begin="7" id="p380b" impatience="0.28" period="7">
    <walk from="-E380" to="E380"/>
  </personFlow>
  <personFlow begin="7" id="p382a" impatience="0.72" period="6">
    <walk from="E382" to="-E382"/>
  </personFlow>
  <personFlow begin="7" id="p382b" impatience="0.28" period="9">
    <walk from="-E382" to="E382"/>
  </personFlow>
  <personFlow begin="7" id="p385a" impatience="0.73" period="7">
    <walk from="E385" to="-E385"/>
  </personFlow>
  <personFlow begin="7" id="p385b" impatience="0.27" period="5">
    <walk from="-E385" to="E385"/>
  </personFlow>
  <personFlow begin="7" id="p386a" impatience="0.73" period="5">
    <walk from="E386" to="-E386"/>
  </personFlow>
  <personFlow begin="7" id="p386b" impatience="0.27" period="8">
    <walk from="-E386" to="E386"/>
  </personFlow>
  <personFlow begin="7" id="p388a" impatience="0.73" period="5">
    <walk from="E388" to="-E388"/>
  </personFlow>
  <personFlow begin="7" id="p388b" impatience="0.27" period="6">
    <walk from="-E388" to="E388"/>
  </personFlow>
  <personFlow begin="8" id="p389a" impatience="0.73" period="5">
    <walk from="E389" to="-E389"/>
  </personFlow>
  <personFlow begin="8" id="p389b" impatience="0.27" period="6">
    <walk from="-E389" to="E389"/>
  </personFlow>
  <personFlow begin="8" id="p396a" impatience="0.75" period="7">
    <walk from="E396" to="-E396"/>
  </personFlow>
  <personFlow begin="8" id="p396b" impatience="0.25" period="6">
    <walk from="-E396" to="E396"/>
  </personFlow>
  <personFlow begin="8" id="p402a" impatience="0.76" period="7">
    <walk from="E402" to="-E402"/>
  </personFlow>
  <personFlow begin="8" id="p402b" impatience="0.24" period="9">
    <walk from="-E402" to="E402"/>
  </personFlow>
  <personFlow begin="8" id="p405a" impatience="0.76" period="6">
    <walk from="E405" to="-E405"/>
  </personFlow>
  <personFlow begin="8" id="p405b" impatience="0.24" period="7">
    <walk from="-E405" to="E405"/>
  </personFlow>
  <personFlow begin="8" id="p406a" impatience="0.76" period="5">
    <walk from="E406" to="-E406"/>
  </personFlow>
  <personFlow begin="8" id="p406b" impatience="0.24" period="5">
    <walk from="-E406" to="E406"/>
  </personFlow>
  <personFlow begin="8" id="p407a" impatience="0.77" period="6">
    <walk from="E407" to="-E407"/>
  </personFlow>
  <personFlow begin="8" id="p407b" impatience="0.23" period="8">
    <walk from="-E407" to="E407"/>
  </personFlow>
  <personFlow begin="8" id="p409a" impatience="0.77" period="10">
    <walk from="E409" to="-E409"/>
  </personFlow>
  <personFlow begin="8" id="p409b" impatience="0.23" period="9">
    <walk from="-E409" to="E409"/>
  </personFlow>
  <personFlow begin="8" id="p410a" impatience="0.77" period="7">