<routes>
  <vType id="agv" type="e-scooter" length="1.1" width="0.4" accel="10" decel="10" sigma="0"/>
	<route id="route_0" edges="E0 E1 E2 E3 E4 E5 E6 E7 E23 E24 E25 E26 E27 E28 E29 E30 E31 E32 E33 E34 E35 E36 E37 E38 E39 E40 E41 E42 E43 E44 E45 E46 E47 E48 E49 E50 E51 E52 E53 E54 E55 E56 E57 E58 E59 E60 E61 E62 E63 E64 E65 E66 E67 E68 E69 E70 E71 E76 E77 E78 E79 E80 E81 E82 E83 E84 E85 E86 E90 E91 E92"/>
	<flow id="flow0" type="agv" route="route_0" begin="0" period="3" minGap="1.00" maxSpeed="4.00" number="1115"/>
 
  <personFlow begin="0" id="p1a" impatience="0.00" period="8">
    <walk from="E1" to="-E1"/>
  </personFlow>
  <personFlow begin="0" id="p1b" impatience="1.00" period="8">
    <walk from="-E1" to="E1"/>
  </personFlow>
  <personFlow begin="0" id="p10a" impatience="0.04" period="9">
    <walk from="E10" to="-E10"/>
  </personFlow>
  <personFlow begin="0" id="p10b" impatience="0.96" period="9">
    <walk from="-E10" to="E10"/>
  </personFlow>
  <personFlow begin="0" id="p100a" impatience="0.38" period="10">
    <walk from="E100" to="-E100"/>
  </personFlow>
  <personFlow begin="0" id="p100b" impatience="0.62" period="10">
    <walk from="-E100" to="E100"/>
  </personFlow>
  <personFlow begin="0" id="p101a" impatience="0.38" period="5">
    <walk from="E101" to="-E101"/>
  </personFlow>
  <personFlow begin="0" id="p101b" impatience="0.62" period="5">
    <walk from="-E101" to="E101"/>
  </personFlow>
  <personFlow begin="0" id="p102a" impatience="0.38" period="6">
    <walk from="E102" to="-E102"/>
  </personFlow>
  <personFlow begin="0" id="p102b" impatience="0.62" period="6">
    <walk from="-E102" to="E102"/>
  </personFlow>
  <personFlow begin="0" id="p103a" impatience="0.39" period="7">
    <walk from="E103" to="-E103"/>
  </personFlow>
  <personFlow begin="0" id="p103b" impatience="0.61" period="7">
    <walk from="-E103" to="E103"/>
  </personFlow>
  <personFlow begin="0" id="p104a" impatience="0.39" period="8">
    <walk from="E104" to="-E104"/>
  </personFlow>
  <personFlow begin="0" id="p104b" impatience="0.61" period="8">
    <walk from="-E104" to="E104"/>
  </personFlow>
  <personFlow begin="0" id="p105a" impatience="0.39" period="9">
    <walk from="E105" to="-E105"/>
  </personFlow>
  <personFlow begin="0" id="p105b" impatience="0.61" period="9">
    <walk from="-E105" to="E105"/>
  </personFlow>
  <personFlow begin="0" id="p106a" impatience="0.40" period="10">
    <walk from="E106" to="-E106"/>
  </personFlow>
  <personFlow begin="0" id="p106b" impatience="0.60" period="10">
    <walk from="-E106" to="E106"/>
  </personFlow>
  <personFlow begin="0" id="p107a" impatience="0.40" period="5">
    <walk from="E107" to="-E107"/>
  </personFlow>
  <personFlow begin="0" id="p107b" impatience="0.60" period="5">
    <walk from="-E107" to="E107"/>
  </personFlow>
  <personFlow begin="0" id="p108a" impatience="0.41" period="6">
    <walk from="E108" to="-E108"/>
  </personFlow>
  <personFlow begin="0" id="p108b" impatience="0.59" period="6">
    <walk from="-E108" to="E108"/>
  </personFlow>
  <personFlow begin="0" id="p109a" impatience="0.41" period="7">
    <walk from="E109" to="-E109"/>
  </personFlow>
  <personFlow begin="0" id="p109b" impatience="0.59" period="7">
    <walk from="-E109" to="E109"/>
  </personFlow>
  <personFlow begin="0" id="p11a" impatience="0.04" period="8">
    <walk from="E11" to="-E11"/>
  </personFlow>
  <personFlow begin="0" id="p11b" impatience="0.96" period="8">
    <walk from="-E11" to="E11"/>
  </personFlow>
  <personFlow begin="0" id="p110a" impatience="0.41" period="9">
    <walk from="E110" to="-E110"/>
  </personFlow>
  <personFlow begin="0" id="p110b" impatience="0.59" period="9">
    <walk from="-E110" to="E110"/>
  </personFlow>
  <personFlow begin="0" id="p111a" impatience="0.42" period="10">
    <walk from="E111" to="-E111"/>
  </personFlow>
  <personFlow begin="0" id="p111b" impatience="0.58" period="10">
    <walk from="-E111" to="E111"/>
  </personFlow>
  <personFlow begin="1" id="p112a" impatience="0.42" period="5">
    <walk from="E112" to="-E112"/>
  </personFlow>
  <personFlow begin="1" id="p112b" impatience="0.58" period="5">
    <walk from="-E112" to="E112"/>
  </personFlow>
  <personFlow begin="1" id="p113a" impatience="0.42" period="6">
    <walk from="E113" to="-E113"/>
  </personFlow>
  <personFlow begin="1" id="p113b" impatience="0.58" period="6">
    <walk from="-E113" to="E113"/>
  </personFlow>
  <personFlow begin="1" id="p114a" impatience="0.43" period="7">
    <walk from="E114" to="-E114"/>
  </personFlow>
  <personFlow begin="1" id="p114b" impatience="0.57" period="7">
    <walk from="-E114" to="E114"/>
  </personFlow>
  <personFlow begin="1" id="p115a" impatience="0.43" period="8">
    <walk from="E115" to="-E115"/>
  </personFlow>
  <personFlow begin="1" id="p115b" impatience="0.57" period="8">
    <walk from="-E115" to="E115"/>
  </personFlow>
  <personFlow begin="1" id="p116a" impatience="0.44" period="9">
    <walk from="E116" to="-E116"/>
  </personFlow>
  <personFlow begin="1" id="p116b" impatience="0.56" period="9">
    <walk from="-E116" to="E116"/>
  </personFlow>
  <personFlow begin="1" id="p117a" impatience="0.44" period="10">
    <walk from="E117" to="-E117"/>
  </personFlow>
  <personFlow begin="1" id="p117b" impatience="0.56" period="10">
    <walk from="-E117" to="E117"/>
  </personFlow>
  <personFlow begin="1" id="p118a" impatience="0.44" period="5">
    <walk from="E118" to="-E118"/>
  </personFlow>
  <personFlow begin="1" id="p118b" impatience="0.56" period="5">
    <walk from="-E118" to="E118"/>
  </personFlow>
  <personFlow begin="1" id="p119a" impatience="0.45" period="6">
    <walk from="E119" to="-E119"/>
  </personFlow>
  <personFlow begin="1" id="p119b" impatience="0.55" period="6">
    <walk from="-E119" to="E119"/>
  </personFlow>
  <personFlow begin="1" id="p12a" impatience="0.05" period="7">
    <walk from="E12" to="-E12"/>
  </personFlow>
  <personFlow begin="1" id="p12b" impatience="0.95" period="7">
    <walk from="-E12" to="E12"/>
  </personFlow>
  <personFlow begin="1" id="p120a" impatience="0.45" period="8">
    <walk from="E120" to="-E120"/>
  </personFlow>
  <personFlow begin="1" id="p120b" impatience="0.55" period="8">
    <walk from="-E120" to="E120"/>
  </personFlow>
  <personFlow begin="1" id="p121a" impatience="0.45" period="5">
    <walk from="E121" to="-E121"/>
  </personFlow>
  <personFlow begin="1" id="p121b" impatience="0.55" period="5">
    <walk from="-E121" to="E121"/>
  </personFlow>
  <personFlow begin="1" id="p122a" impatience="0.46" period="6">
    <walk from="E122" to="-E122"/>
  </personFlow>
  <personFlow begin="1" id="p122b" impatience="0.54" period="6">
    <walk from="-E122" to="E122"/>
  </personFlow>
  <personFlow begin="1" id="p123a" impatience="0.46" period="7">
    <walk from="E123" to="-E123"/>
  </personFlow>
  <personFlow begin="1" id="p123b" impatience="0.54" period="7">
    <walk from="-E123" to="E123"/>
  </personFlow>
  <personFlow begin="1" id="p124a" impatience="0.47" period="8">
    <walk from="E124" to="-E124"/>
  </personFlow>
  <personFlow begin="1" id="p124b" impatience="0.53" period="8">
    <walk from="-E124" to="E124"/>
  </personFlow>
  <personFlow begin="1" id="p125a" impatience="0.47" period="9">
    <walk from="E125" to="-E125"/>
  </personFlow>
  <personFlow begin="1" id="p125b" impatience="0.53" period="9">
    <walk from="-E125" to="E125"/>
  </personFlow>
  <personFlow begin="2" id="p126a" impatience="0.47" period="10">
    <walk from="E126" to="-E126"/>
  </personFlow>
  <personFlow begin="2" id="p126b" impatience="0.53" period="10">
    <walk from="-E126" to="E126"/>
  </personFlow>
  <personFlow begin="2" id="p127a" impatience="0.48" period="5">
    <walk from="E127" to="-E127"/>
  </personFlow>
  <personFlow begin="2" id="p127b" impatience="0.52" period="5">
    <walk from="-E127" to="E127"/>
  </personFlow>
  <personFlow begin="2" id="p128a" impatience="0.48" period="6">
    <walk from="E128" to="-E128"/>
  </personFlow>
  <personFlow begin="2" id="p128b" impatience="0.52" period="6">
    <walk from="-E128" to="E128"/>
  </personFlow>
  <personFlow begin="2" id="p129a" impatience="0.48" period="7">
    <walk from="E129" to="-E129"/>
  </personFlow>
  <personFlow begin="2" id="p129b" impatience="0.52" period="7">
    <walk from="-E129" to="E129"/>
  </personFlow>
  <personFlow begin="2" id="p13a" impatience="0.05" period="8">
    <walk from="E13" to="-E13"/>
  </personFlow>
  <personFlow begin="2" id="p13b" impatience="0.95" period="8">
    <walk from="-E13" to="E13"/>
  </personFlow>
  <personFlow begin="2" id="p130a" impatience="0.49" period="9">
    <walk from="E130" to="-E130"/>
  </personFlow>
  <personFlow begin="2" id="p130b" impatience="0.51" period="9">
    <walk from="-E130" to="E130"/>
  </personFlow>
  <personFlow begin="2" id="p131a" impatience="0.49" period="10">
    <walk from="E131" to="-E131"/>
  </personFlow>
  <personFlow begin="2" id="p131b" impatience="0.51" period="10">
    <walk from="-E131" to="E131"/>
  </personFlow>
  <personFlow begin="2" id="p132a" impatience="0.50" period="5">
    <walk from="E132" to="-E132"/>
  </personFlow>
  <personFlow begin="2" id="p132b" impatience="0.50" period="5">
    <walk from="-E132" to="E132"/>
  </personFlow>
  <personFlow begin="2" id="p133a" impatience="0.50" period="6">
    <walk from="E133" to="-E133"/>
  </personFlow>
  <personFlow begin="2" id="p133b" impatience="0.50" period="6">
    <walk from="-E133" to="E133"/>
  </personFlow>
  <personFlow begin="2" id="p134a" impatience="0.50" period="7">
    <walk from="E134" to="-E134"/>
  </personFlow>
  <personFlow begin="2" id="p134b" impatience="0.50" period="7">
    <walk from="-E134" to="E134"/>
  </personFlow>
  <personFlow begin="2" id="p135a" impatience="0.51" period="8">
    <walk from="E135" to="-E135"/>
  </personFlow>
  <personFlow begin="2" id="p135b" impatience="0.49" period="8">
    <walk from="-E135" to="E135"/>
  </personFlow>
  <personFlow begin="2" id="p136a" impatience="0.51" period="9">
    <walk from="E136" to="-E136"/>
  </personFlow>
  <personFlow begin="2" id="p136b" impatience="0.49" period="9">
    <walk from="-E136" to="E136"/>
  </personFlow>
  <personFlow begin="2" id="p137a" impatience="0.51" period="10">
    <walk from="E137" to="-E137"/>
  </personFlow>
  <personFlow begin="2" id="p137b" impatience="0.49" period="10">
    <walk from="-E137" to="E137"/>
  </personFlow>
  <personFlow begin="2" id="p138a" impatience="0.52" period="5">
    <walk from="E138" to="-E138"/>
  </personFlow>
  <personFlow begin="2" id="p138b" impatience="0.48" period="5">
    <walk from="-E138" to="E138"/>
  </personFlow>
  <personFlow begin="2" id="p139a" impatience="0.52" period="6">
    <walk from="E139" to="-E139"/>
  </personFlow>
  <personFlow begin="2" id="p139b" impatience="0.48" period="6">
    <walk from="-E139" to="E139"/>
  </personFlow>
  <personFlow begin="3" id="p14a" impatience="0.05" period="7">
    <walk from="E14" to="-E14"/>
  </personFlow>
  <personFlow begin="3" id="p14b" impatience="0.95" period="7">
    <walk from="-E14" to="E14"/>
  </personFlow>
  <personFlow begin="3" id="p140a" impatience="0.53" period="8">
    <walk from="E140" to="-E140"/>
  </personFlow>
  <personFlow begin="3" id="p140b" impatience="0.47" period="8">
    <walk from="-E140" to="E140"/>
  </personFlow>
  <personFlow begin="3" id="p141a" impatience="0.53" period="9">
    <walk from="E141" to="-E141"/>
  </personFlow>
  <personFlow begin="3" id="p141b" impatience="0.47" period="9">
    <walk from="-E141" to="E141"/>
  </personFlow>
  <personFlow begin="3" id="p142a" impatience="0.53" period="10">
    <walk from="E142" to="-E142"/>
  </personFlow>
  <personFlow begin="3" id="p142b" impatience="0.47" period="10">
    <walk from="-E142" to="E142"/>
  </personFlow>
  <personFlow begin="3" id="p143a" impatience="0.54" period="5">
    <walk from="E143" to="-E143"/>
  </personFlow>
  <personFlow begin="3" id="p143b" impatience="0.46" period="5">
    <walk from="-E143" to="E143"/>
  </personFlow>
  <personFlow begin="3" id="p144a" impatience="0.54" period="6">
    <walk from="E144" to="-E144"/>
  </personFlow>
  <personFlow begin="3" id="p144b" impatience="0.46" period="6">
    <walk from="-E144" to="E144"/>
  </personFlow>
  <personFlow begin="3" id="p145a" impatience="0.54" period="7">
    <walk from="E145" to="-E145"/>
  </personFlow>
  <personFlow begin="3" id="p145b" impatience="0.46" period="7">
    <walk from="-E145" to="E145"/>
  </personFlow>
  <personFlow begin="3" id="p146a" impatience="0.55" period="8">
    <walk from="E146" to="-E146"/>
  </personFlow>
  <personFlow begin="3" id="p146b" impatience="0.45" period="8">
    <walk from="-E146" to="E146"/>
  </personFlow>
  <personFlow begin="3" id="p147a" impatience="0.55" period="9">
    <walk from="E147" to="-E147"/>
  </personFlow>
  <personFlow begin="3" id="p147b" impatience="0.45" period="9">
    <walk from="-E147" to="E147"/>
  </personFlow>
  <personFlow begin="3" id="p148a" impatience="0.56" period="10">
    <walk from="E148" to="-E148"/>
  </personFlow>
  <personFlow begin="3" id="p148b" impatience="0.44" period="10">
    <walk from="-E148" to="E148"/>
  </personFlow>
  <personFlow begin="3" id="p149a" impatience="0.56" period="5">
    <walk from="E149" to="-E149"/>
  </personFlow>
  <personFlow begin="3" id="p149b" impatience="0.44" period="5">
    <walk from="-E149" to="E149"/>
  </personFlow>
  <personFlow begin="3" id="p15a" impatience="0.06" period="6">
    <walk from="E15" to="-E15"/>
  </personFlow>
  <personFlow begin="3" id="p15b" impatience="0.94" period="6">
    <walk from="-E15" to="E15"/>
  </personFlow>
  <personFlow begin="3" id="p150a" impatience="0.56" period="7">
    <walk from="E150" to="-E150"/>
  </personFlow>
  <personFlow begin="3" id="p150b" impatience="0.44" period="7">
    <walk from="-E150" to="E150"/>
  </personFlow>
  <personFlow begin="3" id="p151a" impatience="0.57" period="8">
    <walk from="E151" to="-E151"/>
  </personFlow>
  <personFlow begin="3" id="p151b" impatience="0.43" period="8">
    <walk from="-E151" to="E151"/>
  </personFlow>
  <personFlow begin="3" id="p152a" impatience="0.57" period="9">
    <walk from="E152" to="-E152"/>
  </personFlow>
  <personFlow begin="3" id="p152b" impatience="0.43" period="9">
    <walk from="-E152" to="E152"/>
  </personFlow>
  <personFlow begin="4" id="p153a" impatience="0.57" period="10">
    <walk from="E153" to="-E153"/>
  </personFlow>
  <personFlow begin="4" id="p153b" impatience="0.43" period="10">
    <walk from="-E153" to="E153"/>
  </personFlow>
  <personFlow begin="4" id="p154a" impatience="0.58" period="5">
    <walk from="E154" to="-E154"/>
  </personFlow>
  <personFlow begin="4" id="p154b" impatience="0.42" period="5">
    <walk from="-E154" to="E154"/>
  </personFlow>
  <personFlow begin="4" id="p155a" impatience="0.58" period="6">
    <walk from="E155" to="-E155"/>
  </personFlow>
  <personFlow begin="4" id="p155b" impatience="0.42" period="6">
    <walk from="-E155" to="E155"/>
  </personFlow>
  <personFlow begin="4" id="p156a" impatience="0.59" period="7">
    <walk from="E156" to="-E156"/>
  </personFlow>
  <personFlow begin="4" id="p156b" impatience="0.41" period="7">
    <walk from="-E156" to="E156"/>
  </personFlow>
  <personFlow begin="4" id="p157a" impatience="0.59" period="8">
    <walk from="E157" to="-E157"/>
  </personFlow>
  <personFlow begin="4" id="p157b" impatience="0.41" period="8">
    <walk from="-E157" to="E157"/>
  </personFlow>
  <personFlow begin="4" id="p158a" impatience="0.59" period="5">
    <walk from="E158" to="-E158"/>
  </personFlow>
  <personFlow begin="4" id="p158b" impatience="0.41" period="5">
    <walk from="-E158" to="E158"/>
  </personFlow>
  <personFlow begin="4" id="p159a" impatience="0.60" period="6">
    <walk from="E159" to="-E159"/>
  </personFlow>
  <personFlow begin="4" id="p159b" impatience="0.40" period="6">
    <walk from="-E159" to="E159"/>
  </personFlow>
  <personFlow begin="4" id="p16a" impatience="0.06" period="7">
    <walk from="E16" to="-E16"/>
  </personFlow>
  <personFlow begin="4" id="p16b" impatience="0.94" period="7">
    <walk from="-E16" to="E16"/>
  </personFlow>
  <personFlow begin="4" id="p160a" impatience="0.60" period="8">
    <walk from="E160" to="-E160"/>
  </personFlow>
  <personFlow begin="4" id="p160b" impatience="0.40" period="8">
    <walk from="-E160" to="E160"/>
  </personFlow>
  <personFlow begin="4" id="p161a" impatience="0.60" period="9">
    <walk from="E161" to="-E161"/>
  </personFlow>
  <personFlow begin="4" id="p161b" impatience="0.40" period="9">
    <walk from="-E161" to="E161"/>
  </personFlow>
  <personFlow begin="4" id="p162a" impatience="0.61" period="10">
    <walk from="E162" to="-E162"/>
  </personFlow>
  <personFlow begin="4" id="p162b" impatience="0.39" period="10">
    <walk from="-E162" to="E162"/>
  </personFlow>
  <personFlow begin="4" id="p163a" impatience="0.61" period="5">
    <walk from="E163" to="-E163"/>
  </personFlow>
  <personFlow begin="4" id="p163b" impatience="0.39" period="5">
    <walk from="-E163" to="E163"/>
  </personFlow>
  <personFlow begin="4" id="p164a" impatience="0.62" period="6">
    <walk from="E164" to="-E164"/>
  </personFlow>
  <personFlow begin="4" id="p164b" impatience="0.38" period="6">
    <walk from="-E164" to="E164"/>
  </personFlow>
  <personFlow begin="4" id="p165a" impatience="0.62" period="7">
    <walk from="E165" to="-E165"/>
  </personFlow>
  <personFlow begin="4" id="p165b" impatience="0.38" period="7">
    <walk from="-E165" to="E165"/>
  </personFlow>
  <personFlow begin="4" id="p166a" impatience="0.62" period="8">
    <walk from="E166" to="-E166"/>
  </personFlow>
  <personFlow begin="4" id="p166b" impatience="0.38" period="8">
    <walk from="-E166" to="E166"/>
  </personFlow>
  <personFlow begin="5" id="p167a" impatience="0.63" period="9">
    <walk from="E167" to="-E167"/>
  </personFlow>
  <personFlow begin="5" id="p167b" impatience="0.37" period="9">
    <walk from="-E167" to="E167"/>
  </personFlow>
  <personFlow begin="5" id="p168a" impatience="0.63" period="10">
    <walk from="E168" to="-E168"/>
  </personFlow>
  <personFlow begin="5" id="p168b" impatience="0.37" period="10">
    <walk from="-E168" to="E168"/>
  </personFlow>
  <personFlow begin="5" id="p169a" impatience="0.63" period="5">
    <walk from="E169" to="-E169"/>
  </personFlow>
  <personFlow begin="5" id="p169b" impatience="0.37" period="5">
    <walk from="-E169" to="E169"/>
  </personFlow>
  <personFlow begin="5" id="p17a" impatience="0.06" period="6">
    <walk from="E17" to="-E17"/>
  </personFlow>
  <personFlow begin="5" id="p17b" impatience="0.94" period="6">
    <walk from="-E17" to="E17"/>
  </personFlow>
  <personFlow begin="5" id="p170a" impatience="0.64" period="7">
    <walk from="E170" to="-E170"/>
  </personFlow>
  <personFlow begin="5" id="p170b" impatience="0.36" period="7">
    <walk from="-E170" to="E170"/>
  </personFlow>
  <personFlow begin="5" id="p171a" impatience="0.64" period="8">
    <walk from="E171" to="-E171"/>
  </personFlow>
  <personFlow begin="5" id="p171b" impatience="0.36" period="8">
    <walk from="-E171" to="E171"/>
  </personFlow>
  <personFlow begin="5" id="p172a" impatience="0.65" period="9">
    <walk from="E172" to="-E172"/>
  </personFlow>
  <personFlow begin="5" id="p172b" impatience="0.35" period="9">
    <walk from="-E172" to="E172"/>
  </personFlow>
  <personFlow begin="5" id="p173a" impatience="0.65" period="10">
    <walk from="E173" to="-E173"/>
  </personFlow>
  <personFlow begin="5" id="p173b" impatience="0.35" period="10">
    <walk from="-E173" to="E173"/>
  </personFlow>
  <personFlow begin="5" id="p174a" impatience="0.65" period="5">
    <walk from="E174" to="-E174"/>
  </personFlow>
  <personFlow begin="5" id="p174b" impatience="0.35" period="5">
    <walk from="-E174" to="E174"/>
  </personFlow>
  <personFlow begin="5" id="p175a" impatience="0.66" period="6">
    <walk from="E175" to="-E175"/>
  </personFlow>
  <personFlow begin="5" id="p175b" impatience="0.34" period="6">
    <walk from="-E175" to="E175"/>
  </personFlow>
  <personFlow begin="5" id="p176a" impatience="0.66" period="7">
    <walk from="E176" to="-E176"/>
  </personFlow>
  <personFlow begin="5" id="p176b" impatience="0.34" period="7">
    <walk from="-E176" to="E176"/>
  </personFlow>
  <personFlow begin="5" id="p177a" impatience="0.66" period="8">
    <walk from="E177" to="-E177"/>
  </personFlow>
  <personFlow begin="5" id="p177b" impatience="0.34" period="8">
    <walk from="-E177" to="E177"/>
  </personFlow>
  <personFlow begin="5" id="p178a" impatience="0.67" period="9">
    <walk from="E178" to="-E178"/>
  </personFlow>
  <personFlow begin="5" id="p178b" impatience="0.33" period="9">
    <walk from="-E178" to="E178"/>
  </personFlow>
  <personFlow begin="5" id="p179a" impatience="0.67" period="10">
    <walk from="E179" to="-E179"/>
  </personFlow>
  <personFlow begin="5" id="p179b" impatience="0.33" period="10">
    <walk from="-E179" to="E179"/>
  </personFlow>
  <personFlow begin="5" id="p18a" impatience="0.07" period="5">
    <walk from="E18" to="-E18"/>
  </personFlow>
  <personFlow begin="5" id="p18b" impatience="0.93" period="5">
    <walk from="-E18" to="E18"/>
  </personFlow>
  <personFlow begin="6" id="p180a" impatience="0.68" period="6">
    <walk from="E180" to="-E180"/>
  </personFlow>
  <personFlow begin="6" id="p180b" impatience="0.32" period="6">
    <walk from="-E180" to="E180"/>
  </personFlow>
  <personFlow begin="6" id="p181a" impatience="0.68" period="7">
    <walk from="E181" to="-E181"/>
  </personFlow>
  <personFlow begin="6" id="p181b" impatience="0.32" period="7">
    <walk from="-E181" to="E181"/>
  </personFlow>
  <personFlow begin="6" id="p182a" impatience="0.68" period="8">
    <walk from="E182" to="-E182"/>
  </personFlow>
  <personFlow begin="6" id="p182b" impatience="0.32" period="8">
    <walk from="-E182" to="E182"/>
  </personFlow>
  <personFlow begin="6" id="p183a" impatience="0.69" period="9">
    <walk from="E183" to="-E183"/>
  </personFlow>
  <personFlow begin="6" id="p183b" impatience="0.31" period="9">
    <walk from="-E183" to="E183"/>
  </personFlow>
  <personFlow begin="6" id="p184a" impatience="0.69" period="10">
    <walk from="E184" to="-E184"/>
  </personFlow>
  <personFlow begin="6" id="p184b" impatience="0.31" period="10">
    <walk from="-E184" to="E184"/>
  </personFlow>
  <personFlow begin="6" id="p185a" impatience="0.69" period="5">
    <walk from="E185" to="-E185"/>
  </personFlow>
  <personFlow begin="6" id="p185b" impatience="0.31" period="5">
    <walk from="-E185" to="E185"/>
  </personFlow>
  <personFlow begin="6" id="p186a" impatience="0.70" period="6">
    <walk from="E186" to="-E186"/>
  </personFlow>
  <personFlow begin="6" id="p186b" impatience="0.30" period="6">
    <walk from="-E186" to="E186"/>
  </personFlow>
  <personFlow begin="6" id="p187a" impatience="0.70" period="7">
    <walk from="E187" to="-E187"/>
  </personFlow>
  <personFlow begin="6" id="p187b" impatience="0.30" period="7">
    <walk from="-E187" to="E187"/>
  </personFlow>
  <personFlow begin="6" id="p189a" impatience="0.71" period="8">
    <walk from="E189" to="-E189"/>
  </personFlow>
  <personFlow begin="6" id="p189b" impatience="0.29" period="8">
    <walk from="-E189" to="E189"/>
  </personFlow>
  <personFlow begin="6" id="p19a" impatience="0.07" period="9">
    <walk from="E19" to="-E19"/>
  </personFlow>
  <personFlow begin="6" id="p19b" impatience="0.93" period="9">
    <walk from="-E19" to="E19"/>
  </personFlow>
  <personFlow begin="6" id="p190a" impatience="0.71" period="10">
    <walk from="E190" to="-E190"/>
  </personFlow>
  <personFlow begin="6" id="p190b" impatience="0.29" period="10">
    <walk from="-E190" to="E190"/>
  </personFlow>
  <personFlow begin="6" id="p191a" impatience="0.72" period="5">
    <walk from="E191" to="-E191"/>
  </personFlow>
  <personFlow begin="6" id="p191b" impatience="0.28" period="5">
    <walk from="-E191" to="E191"/>
  </personFlow>
  <personFlow begin="6" id="p192a" impatience="0.72" period="6">
    <walk from="E192" to="-E192"/>
  </personFlow>
  <personFlow begin="6" id="p192b" impatience="0.28" period="6">
    <walk from="-E192" to="E192"/>
  </personFlow>
  <personFlow begin="6" id="p193a" impatience="0.72" period="7">
    <walk from="E193" to="-E193"/>
  </personFlow>
  <personFlow begin="6" id="p193b" impatience="0.28" period="7">
    <walk from="-E193" to="E193"/>
  </personFlow>
  <personFlow begin="6" id="p194a" impatience="0.73" period="8">
    <walk from="E194" to="-E194"/>
  </personFlow>
  <personFlow begin="6" id="p194b" impatience="0.27" period="8">
    <walk from="-E194" to="E194"/>
  </personFlow>
  <personFlow begin="7" id="p195a" impatience="0.73" period="5">
    <walk from="E195" to="-E195"/>
  </personFlow>
  <personFlow begin="7" id="p195b" impatience="0.27" period="5">
    <walk from="-E195" to="E195"/>
  </personFlow>
  <personFlow begin="7" id="p196a" impatience="0.74" period="6">
    <walk from="E196" to="-E196"/>
  </personFlow>
  <personFlow begin="7" id="p196b" impatience="0.26" period="6">
    <walk from="-E196" to="E196"/>
  </personFlow>
  <personFlow begin="7" id="p197a" impatience="0.74" period="7">
    <walk from="E197" to="-E197"/>
  </personFlow>
  <personFlow begin="7" id="p197b" impatience="0.26" period="7">
    <walk from="-E197" to="E197"/>
  </personFlow>
  <personFlow begin="7" id="p198a" impatience="0.74" period="8">
    <walk from="E198" to="-E198"/>
  </personFlow>
  <personFlow begin="7" id="p198b" impatience="0.26" period="8">
    <walk from="-E198" to="E198"/>
  </personFlow>
  <personFlow begin="7" id="p2a" impatience="0.01" period="9">
    <walk from="E2" to="-E2"/>
  </personFlow>
  <personFlow begin="7" id="p2b" impatience="0.99" period="9">
    <walk from="-E2" to="E2"/>
  </personFlow>
  <personFlow begin="7" id="p20a" impatience="0.08" period="10">
    <walk from="E20" to="-E20"/>
  </personFlow>
  <personFlow begin="7" id="p20b" impatience="0.92" period="10">
    <walk from="-E20" to="E20"/>
  </personFlow>
  <personFlow begin="7" id="p200a" impatience="0.75" period="5">
    <walk from="E200" to="-E200"/>
  </personFlow>
  <personFlow begin="7" id="p200b" impatience="0.25" period="5">
    <walk from="-E200" to="E200"/>
  </personFlow>
  <personFlow begin="7" id="p201a" impatience="0.75" period="6">
    <walk from="E201" to="-E201"/>
  </personFlow>
  <personFlow begin="7" id="p201b" impatience="0.25" period="6">
    <walk from="-E201" to="E201"/>
  </personFlow>
  <personFlow begin="7" id="p202a" impatience="0.76" period="7">
    <walk from="E202" to="-E202"/>
  </personFlow>
  <personFlow begin="7" id="p202b" impatience="0.24" period="7">
    <walk from="-E202" to="E202"/>
  </personFlow>
  <personFlow begin="7" id="p203a" impatience="0.76" period="8">
    <walk from="E203" to="-E203"/>
  </personFlow>
  <personFlow begin="7" id="p203b" impatience="0.24" period="8">
    <walk from="-E203" to="E203"/>
  </personFlow>
  <personFlow begin="7" id="p204a" impatience="0.77" period="9">
    <walk from="E204" to="-E204"/>
  </personFlow>
  <personFlow begin="7" id="p204b" impatience="0.23" period="9">
    <walk from="-E204" to="E204"/>
  </personFlow>
  <personFlow begin="7" id="p205a" impatience="0.77" period="10">
    <walk from="E205" to="-E205"/>
  </personFlow>
  <personFlow begin="7" id="p205b" impatience="0.23" period="10">
    <walk from="-E205" to="E205"/>
  </personFlow>
  <personFlow begin="7" id="p206a" impatience="0.77" period="5">
    <walk from="E206" to="-E206"/>
  </personFlow>
  <personFlow begin="7" id="p206b" impatience="0.23" period="5">
    <walk from="-E206" to="E206"/>
  </personFlow>
  <personFlow begin="7" id="p207a" impatience="0.78" period="6">
    <walk from="E207" to="-E207"/>
  </personFlow>
  <personFlow begin="7" id="p207b" impatience="0.22" period="6">
    <walk from="-E207" to="E207"/>
  </personFlow>
  <personFlow begin="7" id="p208a" impatience="0.78" period="7">
    <walk from="E208" to="-E208"/>
  </personFlow>
  <personFlow begin="7" id="p208b" impatience="0.22" period="7">
    <walk from="-E208" to="E208"/>
  </personFlow>
  <personFlow begin="8" id="p209a" impatience="0.78" period="8">
    <walk from="E209" to="-E209"/>
  </personFlow>
  <personFlow begin="8" id="p209b" impatience="0.22" period="8">
    <walk from="-E209" to="E209"/>
  </personFlow>
  <personFlow begin="8" id="p21a" impatience="0.08" period="9">
    <walk from="E21" to="-E21"/>
  </personFlow>
  <personFlow begin="8" id="p21b" impatience="0.92" period="9">
    <walk from="-E21" to="E21"/>
  </personFlow>
  <personFlow begin="8" id="p210a" impatience="0.79" period="10">
    <walk from="E210" to="-E210"/>
  </personFlow>
  <personFlow begin="8" id="p210b" impatience="0.21" period="10">
    <walk from="-E210" to="E210"/>
  </personFlow>
  <personFlow begin="8" id="p211a" impatience="0.79" period="5">
    <walk from="E211" to="-E211"/>
  </personFlow>
  <personFlow begin="8" id="p211b" impatience="0.21" period="5">
    <walk from="-E211" to="E211"/>
  </personFlow>
  <personFlow begin="8" id="p212a" impatience="0.80" period="6">
    <walk from="E212" to="-E212"/>
  </personFlow>
  <personFlow begin="8" id="p212b" impatience="0.20" period="6">
    <walk from="-E212" to="E212"/>
  </personFlow>
  <personFlow begin="8" id="p213a" impatience="0.80" period="7">
    <walk from="E213" to="-E213"/>
  </personFlow>
  <personFlow begin="8" id="p213b" impatience="0.20" period="7">
    <walk from="-E213" to="E213"/>
  </personFlow>
  <personFlow begin="8" id="p214a" impatience="0.80" period="8">
    <walk from="E214" to="-E214"/>
  </personFlow>
  <personFlow begin="8" id="p214b" impatience="0.20" period="8">
    <walk from="-E214" to="E214"/>
  </personFlow>
  <personFlow begin="8" id="p215a" impatience="0.81" period="9">